* NGSPICE file created from FMD_QNC_Padframe24.ext - technology: ihp-sg13g2

* Black-box entry subcircuit for sg13g2_decap_8 abstract view
.subckt sg13g2_decap_8 VDD VSS
.ends

* Black-box entry subcircuit for sg13g2_dfrbpq_1 abstract view
.subckt sg13g2_dfrbpq_1 RESET_B VSS VDD D Q CLK
.ends

* Black-box entry subcircuit for sg13g2_fill_1 abstract view
.subckt sg13g2_fill_1 VDD VSS
.ends

* Black-box entry subcircuit for sg13g2_nand4_1 abstract view
.subckt sg13g2_nand4_1 B C A Y VDD VSS D
.ends

* Black-box entry subcircuit for sg13g2_tiehi abstract view
.subckt sg13g2_tiehi VDD VSS L_HI
.ends

* Black-box entry subcircuit for sg13g2_fill_2 abstract view
.subckt sg13g2_fill_2 VDD VSS
.ends

* Black-box entry subcircuit for sg13g2_dlygate4sd3_1 abstract view
.subckt sg13g2_dlygate4sd3_1 A VDD VSS X
.ends

* Black-box entry subcircuit for sg13g2_decap_4 abstract view
.subckt sg13g2_decap_4 VDD VSS
.ends

* Black-box entry subcircuit for sg13g2_nand2b_1 abstract view
.subckt sg13g2_nand2b_1 Y B A_N VDD VSS
.ends

* Black-box entry subcircuit for bondpad_70x70_novias abstract view
.subckt bondpad_70x70_novias pad
.ends

* Black-box entry subcircuit for sg13g2_nor2b_1 abstract view
.subckt sg13g2_nor2b_1 A B_N Y VDD VSS
.ends

* Black-box entry subcircuit for sg13g2_inv_1 abstract view
.subckt sg13g2_inv_1 VDD Y A VSS
.ends

* Black-box entry subcircuit for sg13g2_o21ai_1 abstract view
.subckt sg13g2_o21ai_1 B1 VDD Y VSS A1 A2
.ends

* Black-box entry subcircuit for sg13g2_nand3_1 abstract view
.subckt sg13g2_nand3_1 B C A Y VDD VSS
.ends

* Black-box entry subcircuit for sg13g2_nor3_1 abstract view
.subckt sg13g2_nor3_1 A B C Y VDD VSS
.ends

* Black-box entry subcircuit for sg13g2_IOPadOut30mA abstract view
.subckt sg13g2_IOPadOut30mA c2p iovdd iovss pad vdd vss
.ends

* Black-box entry subcircuit for sg13g2_nor4_1 abstract view
.subckt sg13g2_nor4_1 A B C D Y VDD VSS
.ends

* Black-box entry subcircuit for sg13g2_Corner abstract view
.subckt sg13g2_Corner iovdd iovss vdd vss
.ends

* Black-box entry subcircuit for sg13g2_IOPadVss abstract view
.subckt sg13g2_IOPadVss iovdd iovss vdd vss
.ends

* Black-box entry subcircuit for sg13g2_nor2_1 abstract view
.subckt sg13g2_nor2_1 A B Y VDD VSS
.ends

* Black-box entry subcircuit for sg13g2_and3_1 abstract view
.subckt sg13g2_and3_1 X A B C VDD VSS
.ends

* Black-box entry subcircuit for sg13g2_or4_1 abstract view
.subckt sg13g2_or4_1 A B C D X VDD VSS
.ends

* Black-box entry subcircuit for sg13g2_IOPadIn abstract view
.subckt sg13g2_IOPadIn iovdd iovss p2c pad vdd vss
.ends

* Black-box entry subcircuit for sg13g2_nand2_1 abstract view
.subckt sg13g2_nand2_1 Y A B VDD VSS
.ends

* Black-box entry subcircuit for sg13g2_a21oi_1 abstract view
.subckt sg13g2_a21oi_1 VSS VDD A1 A2 Y B1
.ends

* Black-box entry subcircuit for sg13g2_tielo abstract view
.subckt sg13g2_tielo VDD VSS L_LO
.ends

* Black-box entry subcircuit for sg13g2_buf_16 abstract view
.subckt sg13g2_buf_16 X A VDD VSS
.ends

* Black-box entry subcircuit for sg13g2_IOPadIOVss abstract view
.subckt sg13g2_IOPadIOVss iovdd iovss vdd vss
.ends

* Black-box entry subcircuit for sg13g2_IOPadIOVdd abstract view
.subckt sg13g2_IOPadIOVdd iovdd iovss vdd vss
.ends

* Black-box entry subcircuit for sg13g2_IOPadVdd abstract view
.subckt sg13g2_IOPadVdd iovdd iovss vdd vss
.ends

.subckt FMD_QNC_Padframe24 IOVDD IOVSS VDD VSS clk_PAD input_PAD[0] input_PAD[1] input_PAD[2]
+ input_PAD[3] input_PAD[4] input_PAD[5] input_PAD[6] input_PAD[7] output_PAD[0] output_PAD[1]
+ output_PAD[2] output_PAD[3] output_PAD[4] output_PAD[5] output_PAD[6] output_PAD[7]
+ output_PAD[8] output_PAD[9] rst_n_PAD
XFILLER_67_520 VDD VSS sg13g2_decap_8
XFILLER_94_350 VDD VSS sg13g2_decap_8
XFILLER_27_406 VDD VSS sg13g2_decap_8
XFILLER_39_266 VDD VSS sg13g2_decap_8
XFILLER_54_203 VDD VSS sg13g2_decap_8
XFILLER_67_597 VDD VSS sg13g2_decap_8
XFILLER_82_567 VDD VSS sg13g2_decap_8
XFILLER_70_729 VDD VSS sg13g2_decap_8
XFILLER_23_623 VDD VSS sg13g2_decap_8
XFILLER_35_483 VDD VSS sg13g2_decap_8
XFILLER_62_280 VDD VSS sg13g2_decap_8
XFILLER_22_133 VDD VSS sg13g2_decap_8
XFILLER_50_420 VDD VSS sg13g2_decap_8
XFILLER_50_497 VDD VSS sg13g2_decap_8
XFILLER_7_7 VDD VSS sg13g2_decap_8
XFILLER_89_133 VDD VSS sg13g2_decap_8
XFILLER_85_350 VDD VSS sg13g2_decap_8
XFILLER_93_14 VDD VSS sg13g2_decap_8
XFILLER_58_553 VDD VSS sg13g2_decap_8
XFILLER_18_406 VDD VSS sg13g2_decap_8
XFILLER_73_534 VDD VSS sg13g2_decap_8
XFILLER_45_203 VDD VSS sg13g2_decap_8
XFILLER_61_707 VDD VSS sg13g2_decap_8
XFILLER_26_63 VDD VSS sg13g2_decap_8
XFILLER_26_461 VDD VSS sg13g2_decap_8
XFILLER_60_217 VDD VSS sg13g2_decap_8
XFILLER_14_623 VDD VSS sg13g2_decap_8
XFILLER_13_133 VDD VSS sg13g2_decap_8
XFILLER_41_420 VDD VSS sg13g2_decap_8
XFILLER_53_280 VDD VSS sg13g2_decap_8
XFILLER_9_126 VDD VSS sg13g2_decap_8
XFILLER_41_497 VDD VSS sg13g2_decap_8
XFILLER_42_84 VDD VSS sg13g2_decap_8
XFILLER_5_343 VDD VSS sg13g2_decap_8
XFILLER_68_328 VDD VSS sg13g2_decap_8
XFILLER_1_560 VDD VSS sg13g2_decap_8
XFILLER_3_56 VDD VSS sg13g2_decap_8
XFILLER_95_147 VDD VSS sg13g2_decap_8
X_83_ _83__7/L_HI VSS VDD _83_/D _83_/Q _83_/CLK sg13g2_dfrbpq_1
XFILLER_67_70 VDD VSS sg13g2_decap_8
XFILLER_49_553 VDD VSS sg13g2_decap_8
XFILLER_76_383 VDD VSS sg13g2_decap_8
XFILLER_36_203 VDD VSS sg13g2_decap_8
XFILLER_64_567 VDD VSS sg13g2_decap_8
XFILLER_52_707 VDD VSS sg13g2_decap_8
XFILLER_91_364 VDD VSS sg13g2_decap_8
XFILLER_51_217 VDD VSS sg13g2_decap_8
XFILLER_17_483 VDD VSS sg13g2_decap_8
XFILLER_83_91 VDD VSS sg13g2_decap_8
XFILLER_32_420 VDD VSS sg13g2_decap_8
XFILLER_44_280 VDD VSS sg13g2_decap_8
XFILLER_20_637 VDD VSS sg13g2_decap_8
XFILLER_32_497 VDD VSS sg13g2_decap_8
XFILLER_66_0 VDD VSS sg13g2_decap_8
XFILLER_9_693 VDD VSS sg13g2_decap_8
XFILLER_87_637 VDD VSS sg13g2_decap_8
XFILLER_86_147 VDD VSS sg13g2_decap_8
XFILLER_74_309 VDD VSS sg13g2_decap_8
XFILLER_67_394 VDD VSS sg13g2_decap_8
XFILLER_27_203 VDD VSS sg13g2_decap_8
XFILLER_55_567 VDD VSS sg13g2_decap_8
XFILLER_43_707 VDD VSS sg13g2_decap_8
XFILLER_70_526 VDD VSS sg13g2_decap_8
XFILLER_82_364 VDD VSS sg13g2_decap_8
XFILLER_63_28 VDD VSS sg13g2_decap_8
XFILLER_42_217 VDD VSS sg13g2_decap_8
XFILLER_23_420 VDD VSS sg13g2_decap_8
XFILLER_35_280 VDD VSS sg13g2_decap_8
XFILLER_11_637 VDD VSS sg13g2_decap_8
XFILLER_50_294 VDD VSS sg13g2_decap_8
XFILLER_23_497 VDD VSS sg13g2_decap_8
XFILLER_10_147 VDD VSS sg13g2_decap_8
XFILLER_12_21 VDD VSS sg13g2_decap_8
XFILLER_88_14 VDD VSS sg13g2_decap_8
XFILLER_12_98 VDD VSS sg13g2_decap_8
XFILLER_2_357 VDD VSS sg13g2_decap_8
XFILLER_78_637 VDD VSS sg13g2_decap_8
XFILLER_77_147 VDD VSS sg13g2_decap_8
XFILLER_58_350 VDD VSS sg13g2_decap_8
XFILLER_18_203 VDD VSS sg13g2_decap_8
XFILLER_46_567 VDD VSS sg13g2_decap_8
XFILLER_37_84 VDD VSS sg13g2_decap_8
XFILLER_34_707 VDD VSS sg13g2_decap_8
XFILLER_73_386 VDD VSS sg13g2_fill_1
XFILLER_73_364 VDD VSS sg13g2_fill_1
XFILLER_61_504 VDD VSS sg13g2_decap_8
XFILLER_33_217 VDD VSS sg13g2_decap_8
XFILLER_14_420 VDD VSS sg13g2_decap_8
XFILLER_26_280 VDD VSS sg13g2_decap_8
XFILLER_14_497 VDD VSS sg13g2_decap_8
XFILLER_41_294 VDD VSS sg13g2_decap_8
XFILLER_6_630 VDD VSS sg13g2_decap_8
XFILLER_5_140 VDD VSS sg13g2_decap_8
XFILLER_69_615 VDD VSS sg13g2_decap_8
XFILLER_78_91 VDD VSS sg13g2_decap_8
XFILLER_68_147 VDD VSS sg13g2_decap_8
XFILLER_49_350 VDD VSS sg13g2_decap_8
XFILLER_77_681 VDD VSS sg13g2_decap_8
XFILLER_92_651 VDD VSS sg13g2_decap_8
X_66_ _66_/B _78_/Q _80_/Q _74_/D VDD VSS _66_/D sg13g2_nand4_1
XFILLER_25_707 VDD VSS sg13g2_decap_8
XFILLER_37_567 VDD VSS sg13g2_decap_8
XFILLER_91_161 VDD VSS sg13g2_decap_8
XFILLER_64_364 VDD VSS sg13g2_decap_8
XFILLER_52_504 VDD VSS sg13g2_decap_8
XFILLER_24_217 VDD VSS sg13g2_decap_8
XFILLER_17_280 VDD VSS sg13g2_decap_8
XFILLER_60_581 VDD VSS sg13g2_decap_8
XFILLER_20_434 VDD VSS sg13g2_decap_8
XFILLER_32_294 VDD VSS sg13g2_decap_8
XFILLER_9_490 VDD VSS sg13g2_decap_8
XFILLER_58_28 VDD VSS sg13g2_decap_8
XFILLER_87_434 VDD VSS sg13g2_decap_8
XFILLER_59_147 VDD VSS sg13g2_decap_8
XFILLER_68_692 VDD VSS sg13g2_decap_8
XFILLER_83_651 VDD VSS sg13g2_decap_8
XFILLER_74_49 VDD VSS sg13g2_decap_8
XFILLER_16_707 VDD VSS sg13g2_decap_8
XFILLER_28_567 VDD VSS sg13g2_decap_8
XFILLER_82_161 VDD VSS sg13g2_decap_8
XFILLER_15_217 VDD VSS sg13g2_decap_8
XFILLER_55_364 VDD VSS sg13g2_decap_8
XFILLER_43_504 VDD VSS sg13g2_decap_8
XFILLER_70_334 VDD VSS sg13g2_decap_8
XFILLER_51_581 VDD VSS sg13g2_decap_8
XFILLER_11_434 VDD VSS sg13g2_decap_8
XFILLER_23_42 VDD VSS sg13g2_decap_8
XFILLER_23_294 VDD VSS sg13g2_decap_8
XFILLER_7_427 VDD VSS sg13g2_decap_8
XFILLER_3_644 VDD VSS sg13g2_decap_8
XFILLER_2_154 VDD VSS sg13g2_decap_8
XFILLER_78_434 VDD VSS sg13g2_decap_8
XFILLER_66_618 VDD VSS sg13g2_decap_8
XFILLER_74_651 VDD VSS sg13g2_decap_8
XFILLER_93_448 VDD VSS sg13g2_decap_8
XFILLER_0_35 VDD VSS sg13g2_decap_8
XFILLER_73_161 VDD VSS sg13g2_decap_8
XFILLER_46_364 VDD VSS sg13g2_decap_8
XFILLER_61_301 VDD VSS sg13g2_decap_8
XFILLER_19_567 VDD VSS sg13g2_decap_8
XFILLER_34_504 VDD VSS sg13g2_decap_8
XFILLER_61_378 VDD VSS sg13g2_decap_8
XFILLER_30_721 VDD VSS sg13g2_decap_8
XFILLER_42_581 VDD VSS sg13g2_decap_8
XFILLER_9_77 VDD VSS sg13g2_decap_8
XFILLER_14_294 VDD VSS sg13g2_decap_8
XFILLER_80_70 VDD VSS sg13g2_decap_8
XFILLER_69_401 VDD VSS sg13g2_decap_8
XFILLER_69_456 VDD VSS sg13g2_fill_1
XFILLER_29_0 VDD VSS sg13g2_decap_8
XFILLER_65_640 VDD VSS sg13g2_decap_8
XFILLER_84_448 VDD VSS sg13g2_decap_8
X_49_ _51_/A _51_/B _52_/A _49_/Y VDD VSS _49_/D sg13g2_nand4_1
XFILLER_64_161 VDD VSS sg13g2_decap_8
XFILLER_37_364 VDD VSS sg13g2_decap_8
XFILLER_52_301 VDD VSS sg13g2_decap_8
XFILLER_25_504 VDD VSS sg13g2_decap_8
XFILLER_80_665 VDD VSS sg13g2_decap_8
XFILLER_52_378 VDD VSS sg13g2_decap_8
XFILLER_40_518 VDD VSS sg13g2_decap_8
XFILLER_21_721 VDD VSS sg13g2_decap_8
XFILLER_33_581 VDD VSS sg13g2_decap_8
XFILLER_20_231 VDD VSS sg13g2_decap_8
XFILLER_69_49 VDD VSS sg13g2_decap_8
XFILLER_88_721 VDD VSS sg13g2_decap_8
XFILLER_87_231 VDD VSS sg13g2_decap_8
XFILLER_0_658 VDD VSS sg13g2_decap_8
XFILLER_75_437 VDD VSS sg13g2_decap_8
XFILLER_56_651 VDD VSS sg13g2_decap_8
XFILLER_18_42 VDD VSS sg13g2_decap_8
XFILLER_28_364 VDD VSS sg13g2_decap_8
XFILLER_43_301 VDD VSS sg13g2_decap_8
XFILLER_55_161 VDD VSS sg13g2_decap_8
XFILLER_16_504 VDD VSS sg13g2_decap_8
XFILLER_71_632 VDD VSS sg13g2_decap_8
XFILLER_31_518 VDD VSS sg13g2_decap_8
XFILLER_70_175 VDD VSS sg13g2_decap_8
XFILLER_12_721 VDD VSS sg13g2_decap_8
XFILLER_34_63 VDD VSS sg13g2_decap_8
XFILLER_43_378 VDD VSS sg13g2_decap_8
XFILLER_24_581 VDD VSS sg13g2_decap_8
XFILLER_11_231 VDD VSS sg13g2_decap_8
XFILLER_8_714 VDD VSS sg13g2_decap_8
X_83__7 VDD VSS _83__7/L_HI sg13g2_tiehi
XFILLER_7_224 VDD VSS sg13g2_decap_8
XFILLER_50_84 VDD VSS sg13g2_decap_8
XFILLER_3_441 VDD VSS sg13g2_decap_8
XFILLER_79_721 VDD VSS sg13g2_decap_8
XFILLER_78_231 VDD VSS sg13g2_decap_8
XFILLER_22_7 VDD VSS sg13g2_decap_8
XFILLER_94_735 VDD VSS sg13g2_decap_8
XFILLER_93_245 VDD VSS sg13g2_decap_8
XFILLER_66_448 VDD VSS sg13g2_fill_2
XFILLER_75_81 VDD VSS sg13g2_decap_8
XFILLER_47_651 VDD VSS sg13g2_decap_8
XFILLER_19_364 VDD VSS sg13g2_decap_8
XFILLER_34_301 VDD VSS sg13g2_decap_8
XFILLER_46_161 VDD VSS sg13g2_decap_8
XFILLER_62_665 VDD VSS sg13g2_decap_8
XFILLER_34_378 VDD VSS sg13g2_decap_8
XFILLER_61_175 VDD VSS sg13g2_decap_8
XFILLER_15_581 VDD VSS sg13g2_decap_8
XFILLER_22_518 VDD VSS sg13g2_decap_8
XFILLER_91_91 VDD VSS sg13g2_decap_8
XFILLER_30_595 VDD VSS sg13g2_decap_8
XFILLER_89_518 VDD VSS sg13g2_decap_8
XFILLER_69_231 VDD VSS sg13g2_decap_8
XFILLER_85_735 VDD VSS sg13g2_decap_8
XFILLER_69_275 VDD VSS sg13g2_decap_8
XFILLER_84_245 VDD VSS sg13g2_decap_8
XFILLER_57_448 VDD VSS sg13g2_decap_8
XFILLER_38_651 VDD VSS sg13g2_decap_8
XFILLER_25_301 VDD VSS sg13g2_decap_8
XFILLER_37_161 VDD VSS sg13g2_decap_8
XFILLER_80_462 VDD VSS sg13g2_decap_8
XFILLER_53_665 VDD VSS sg13g2_decap_8
XFILLER_71_28 VDD VSS sg13g2_decap_8
XFILLER_13_518 VDD VSS sg13g2_decap_8
XFILLER_25_378 VDD VSS sg13g2_decap_8
XFILLER_40_315 VDD VSS sg13g2_decap_8
XFILLER_52_175 VDD VSS sg13g2_decap_8
XFILLER_21_595 VDD VSS sg13g2_decap_8
XFILLER_5_728 VDD VSS sg13g2_decap_8
XFILLER_4_238 VDD VSS sg13g2_decap_8
XFILLER_20_21 VDD VSS sg13g2_decap_8
XFILLER_20_98 VDD VSS sg13g2_decap_8
XFILLER_0_455 VDD VSS sg13g2_decap_8
XFILLER_88_595 VDD VSS sg13g2_decap_8
XFILLER_76_713 VDD VSS sg13g2_decap_8
Xhold30 _66_/D VDD VSS _58_/C sg13g2_dlygate4sd3_1
XFILLER_29_63 VDD VSS sg13g2_decap_8
XFILLER_48_448 VDD VSS sg13g2_decap_8
XFILLER_75_278 VDD VSS sg13g2_decap_4
XFILLER_29_651 VDD VSS sg13g2_decap_8
XFILLER_91_749 VDD VSS sg13g2_decap_8
XFILLER_16_301 VDD VSS sg13g2_decap_8
XFILLER_28_161 VDD VSS sg13g2_decap_8
XFILLER_90_259 VDD VSS sg13g2_decap_8
XFILLER_44_665 VDD VSS sg13g2_decap_8
XFILLER_45_84 VDD VSS sg13g2_decap_8
XFILLER_16_378 VDD VSS sg13g2_decap_8
XFILLER_31_315 VDD VSS sg13g2_decap_8
XFILLER_43_175 VDD VSS sg13g2_decap_8
XFILLER_8_511 VDD VSS sg13g2_decap_8
XFILLER_12_595 VDD VSS sg13g2_decap_8
XFILLER_8_588 VDD VSS sg13g2_decap_8
XFILLER_6_56 VDD VSS sg13g2_decap_8
XFILLER_79_595 VDD VSS sg13g2_decap_8
XFILLER_67_702 VDD VSS sg13g2_decap_8
XFILLER_94_532 VDD VSS sg13g2_decap_8
XFILLER_66_245 VDD VSS sg13g2_decap_8
XFILLER_86_91 VDD VSS sg13g2_decap_8
XFILLER_39_448 VDD VSS sg13g2_decap_8
XFILLER_82_749 VDD VSS sg13g2_decap_8
XFILLER_19_161 VDD VSS sg13g2_decap_8
XFILLER_81_259 VDD VSS sg13g2_decap_8
XFILLER_35_665 VDD VSS sg13g2_decap_8
XFILLER_62_462 VDD VSS sg13g2_decap_8
XFILLER_50_602 VDD VSS sg13g2_decap_8
XFILLER_22_315 VDD VSS sg13g2_decap_8
XFILLER_34_175 VDD VSS sg13g2_decap_8
XFILLER_50_679 VDD VSS sg13g2_decap_8
XFILLER_30_392 VDD VSS sg13g2_decap_8
XFILLER_89_315 VDD VSS sg13g2_decap_8
XFILLER_58_735 VDD VSS sg13g2_decap_8
XFILLER_85_532 VDD VSS sg13g2_decap_8
XFILLER_66_28 VDD VSS sg13g2_decap_8
XFILLER_57_245 VDD VSS sg13g2_decap_8
XFILLER_73_716 VDD VSS sg13g2_decap_8
XFILLER_26_643 VDD VSS sg13g2_decap_8
XFILLER_82_49 VDD VSS sg13g2_decap_8
XFILLER_13_315 VDD VSS sg13g2_decap_8
XFILLER_15_21 VDD VSS sg13g2_decap_8
XFILLER_25_175 VDD VSS sg13g2_decap_8
XFILLER_53_462 VDD VSS sg13g2_decap_8
XFILLER_41_602 VDD VSS sg13g2_decap_8
XFILLER_40_112 VDD VSS sg13g2_decap_8
XFILLER_9_308 VDD VSS sg13g2_decap_8
XFILLER_15_98 VDD VSS sg13g2_decap_8
XFILLER_41_679 VDD VSS sg13g2_decap_8
XFILLER_40_189 VDD VSS sg13g2_decap_8
XFILLER_31_42 VDD VSS sg13g2_decap_8
XFILLER_21_392 VDD VSS sg13g2_decap_8
XFILLER_5_525 VDD VSS sg13g2_decap_8
XFILLER_1_742 VDD VSS sg13g2_decap_8
XFILLER_76_510 VDD VSS sg13g2_decap_8
XFILLER_95_329 VDD VSS sg13g2_decap_8
XFILLER_0_252 VDD VSS sg13g2_decap_8
XFILLER_88_392 VDD VSS sg13g2_decap_8
XFILLER_49_735 VDD VSS sg13g2_decap_8
XFILLER_76_587 VDD VSS sg13g2_decap_8
XFILLER_48_245 VDD VSS sg13g2_decap_8
XFILLER_91_546 VDD VSS sg13g2_decap_8
XFILLER_64_749 VDD VSS sg13g2_decap_8
XFILLER_63_259 VDD VSS sg13g2_decap_8
XFILLER_17_665 VDD VSS sg13g2_decap_8
XFILLER_16_175 VDD VSS sg13g2_decap_8
XFILLER_44_462 VDD VSS sg13g2_decap_8
XFILLER_32_602 VDD VSS sg13g2_decap_8
XFILLER_71_270 VDD VSS sg13g2_decap_8
XFILLER_31_112 VDD VSS sg13g2_decap_8
XFILLER_32_679 VDD VSS sg13g2_decap_8
XFILLER_31_189 VDD VSS sg13g2_decap_8
XFILLER_12_392 VDD VSS sg13g2_decap_8
XFILLER_8_385 VDD VSS sg13g2_decap_8
XFILLER_86_329 VDD VSS sg13g2_decap_8
XFILLER_79_392 VDD VSS sg13g2_decap_8
XFILLER_67_576 VDD VSS sg13g2_decap_8
XFILLER_11_0 VDD VSS sg13g2_decap_8
XFILLER_39_245 VDD VSS sg13g2_decap_8
XFILLER_55_749 VDD VSS sg13g2_decap_8
XFILLER_82_546 VDD VSS sg13g2_decap_8
XFILLER_70_708 VDD VSS sg13g2_decap_8
XFILLER_54_259 VDD VSS sg13g2_decap_8
XFILLER_35_462 VDD VSS sg13g2_decap_8
XFILLER_23_602 VDD VSS sg13g2_decap_8
XFILLER_22_112 VDD VSS sg13g2_decap_8
XFILLER_50_476 VDD VSS sg13g2_decap_8
XFILLER_23_679 VDD VSS sg13g2_decap_8
XFILLER_10_329 VDD VSS sg13g2_decap_8
XFILLER_22_189 VDD VSS sg13g2_decap_8
XFILLER_89_112 VDD VSS sg13g2_decap_8
XFILLER_2_539 VDD VSS sg13g2_decap_8
XFILLER_89_189 VDD VSS sg13g2_decap_8
XFILLER_77_49 VDD VSS sg13g2_decap_8
XFILLER_58_532 VDD VSS sg13g2_decap_8
XFILLER_73_513 VDD VSS sg13g2_decap_8
XFILLER_46_749 VDD VSS sg13g2_decap_8
XFILLER_26_42 VDD VSS sg13g2_decap_8
XFILLER_26_440 VDD VSS sg13g2_decap_8
XFILLER_45_259 VDD VSS sg13g2_decap_8
XFILLER_14_602 VDD VSS sg13g2_decap_8
XFILLER_13_112 VDD VSS sg13g2_decap_8
XFILLER_9_105 VDD VSS sg13g2_decap_8
XFILLER_41_476 VDD VSS sg13g2_decap_8
XFILLER_14_679 VDD VSS sg13g2_decap_8
XFILLER_13_189 VDD VSS sg13g2_decap_8
XFILLER_42_63 VDD VSS sg13g2_decap_8
XFILLER_5_322 VDD VSS sg13g2_decap_8
XFILLER_5_399 VDD VSS sg13g2_decap_8
XFILLER_68_307 VDD VSS sg13g2_decap_8
XFILLER_3_35 VDD VSS sg13g2_decap_8
XFILLER_95_126 VDD VSS sg13g2_decap_8
XFILLER_49_532 VDD VSS sg13g2_decap_8
X_82_ _82__5/L_HI VSS VDD _82_/D _82_/Q _83_/CLK sg13g2_dfrbpq_1
XFILLER_76_362 VDD VSS sg13g2_decap_8
XFILLER_37_749 VDD VSS sg13g2_decap_8
XFILLER_64_546 VDD VSS sg13g2_decap_8
XFILLER_91_343 VDD VSS sg13g2_decap_8
XFILLER_36_259 VDD VSS sg13g2_decap_8
XFILLER_83_70 VDD VSS sg13g2_decap_8
XFILLER_17_462 VDD VSS sg13g2_decap_8
XFILLER_20_616 VDD VSS sg13g2_decap_8
XFILLER_32_476 VDD VSS sg13g2_decap_8
XFILLER_9_672 VDD VSS sg13g2_decap_8
XFILLER_8_182 VDD VSS sg13g2_decap_8
XFILLER_59_0 VDD VSS sg13g2_decap_8
XFILLER_87_616 VDD VSS sg13g2_decap_8
XFILLER_86_126 VDD VSS sg13g2_decap_8
XFILLER_59_329 VDD VSS sg13g2_decap_8
XFILLER_95_693 VDD VSS sg13g2_decap_8
XFILLER_67_373 VDD VSS sg13g2_decap_8
XFILLER_28_749 VDD VSS sg13g2_decap_8
XFILLER_82_343 VDD VSS sg13g2_decap_8
XFILLER_55_546 VDD VSS sg13g2_decap_8
XFILLER_27_259 VDD VSS sg13g2_decap_8
XFILLER_70_505 VDD VSS sg13g2_decap_8
XFILLER_11_616 VDD VSS sg13g2_decap_8
XFILLER_23_476 VDD VSS sg13g2_decap_8
XFILLER_50_273 VDD VSS sg13g2_decap_8
XFILLER_7_609 VDD VSS sg13g2_decap_8
XFILLER_10_126 VDD VSS sg13g2_decap_8
XFILLER_6_119 VDD VSS sg13g2_decap_8
XFILLER_12_77 VDD VSS sg13g2_decap_8
XFILLER_2_336 VDD VSS sg13g2_decap_8
XFILLER_78_616 VDD VSS sg13g2_decap_8
XFILLER_77_126 VDD VSS sg13g2_decap_8
XFILLER_86_693 VDD VSS sg13g2_decap_8
XFILLER_19_749 VDD VSS sg13g2_decap_8
XFILLER_73_332 VDD VSS sg13g2_decap_8
XFILLER_73_343 VDD VSS sg13g2_fill_2
XFILLER_46_546 VDD VSS sg13g2_decap_8
XFILLER_37_63 VDD VSS sg13g2_decap_8
XFILLER_18_259 VDD VSS sg13g2_decap_8
XFILLER_53_84 VDD VSS sg13g2_decap_8
XFILLER_14_476 VDD VSS sg13g2_decap_8
XFILLER_41_273 VDD VSS sg13g2_decap_8
XFILLER_10_693 VDD VSS sg13g2_decap_8
XFILLER_6_686 VDD VSS sg13g2_decap_8
XFILLER_52_7 VDD VSS sg13g2_decap_8
XFILLER_5_196 VDD VSS sg13g2_decap_8
XFILLER_68_126 VDD VSS sg13g2_decap_8
XFILLER_78_70 VDD VSS sg13g2_decap_8
XFILLER_77_660 VDD VSS sg13g2_decap_8
XFILLER_92_630 VDD VSS sg13g2_decap_8
X_65_ _65_/Y _65_/B hold23/X VDD VSS sg13g2_nand2b_1
XFILLER_64_343 VDD VSS sg13g2_decap_8
XFILLER_37_546 VDD VSS sg13g2_decap_8
XFILLER_91_140 VDD VSS sg13g2_decap_8
XFILLER_94_91 VDD VSS sg13g2_decap_8
XFILLER_60_560 VDD VSS sg13g2_decap_8
XFILLER_20_413 VDD VSS sg13g2_decap_8
XFILLER_32_273 VDD VSS sg13g2_decap_8
XFILLER_87_413 VDD VSS sg13g2_decap_8
XFILLER_59_126 VDD VSS sg13g2_decap_8
XFILLER_68_671 VDD VSS sg13g2_decap_8
XFILLER_95_490 VDD VSS sg13g2_decap_8
XFILLER_83_630 VDD VSS sg13g2_decap_8
XFILLER_74_28 VDD VSS sg13g2_decap_8
XFILLER_55_343 VDD VSS sg13g2_decap_8
XFILLER_28_546 VDD VSS sg13g2_decap_8
XFILLER_82_140 VDD VSS sg13g2_decap_8
XFILLER_70_313 VDD VSS sg13g2_decap_8
XFILLER_90_49 VDD VSS sg13g2_decap_8
XFILLER_51_560 VDD VSS sg13g2_decap_8
XFILLER_11_413 VDD VSS sg13g2_decap_8
XFILLER_23_21 VDD VSS sg13g2_decap_8
XFILLER_23_273 VDD VSS sg13g2_decap_8
XFILLER_7_406 VDD VSS sg13g2_decap_8
XFILLER_23_98 VDD VSS sg13g2_decap_8
XFILLER_3_623 VDD VSS sg13g2_decap_8
XFILLER_2_133 VDD VSS sg13g2_decap_8
XFILLER_78_413 VDD VSS sg13g2_decap_8
XFILLER_93_427 VDD VSS sg13g2_decap_8
XFILLER_48_84 VDD VSS sg13g2_decap_8
XFILLER_86_490 VDD VSS sg13g2_decap_8
XFILLER_74_630 VDD VSS sg13g2_decap_8
XFILLER_59_693 VDD VSS sg13g2_decap_8
XFILLER_0_14 VDD VSS sg13g2_decap_8
XFILLER_46_343 VDD VSS sg13g2_decap_8
XFILLER_19_546 VDD VSS sg13g2_decap_8
XFILLER_73_140 VDD VSS sg13g2_decap_8
XFILLER_61_357 VDD VSS sg13g2_decap_8
XFILLER_14_273 VDD VSS sg13g2_decap_8
XFILLER_30_700 VDD VSS sg13g2_decap_8
XFILLER_42_560 VDD VSS sg13g2_decap_8
XFILLER_9_56 VDD VSS sg13g2_decap_8
XFILLER_10_490 VDD VSS sg13g2_decap_8
XFILLER_6_483 VDD VSS sg13g2_decap_8
XFILLER_89_91 VDD VSS sg13g2_decap_8
XFILLER_84_427 VDD VSS sg13g2_decap_8
X_48_ _52_/C _52_/D _51_/C _60_/B VDD VSS _51_/D sg13g2_nand4_1
XFILLER_64_140 VDD VSS sg13g2_decap_8
XFILLER_37_343 VDD VSS sg13g2_decap_8
XFILLER_80_644 VDD VSS sg13g2_decap_8
XFILLER_65_696 VDD VSS sg13g2_decap_8
XFILLER_52_357 VDD VSS sg13g2_decap_8
XFILLER_21_700 VDD VSS sg13g2_decap_8
XFILLER_33_560 VDD VSS sg13g2_decap_8
XFILLER_20_210 VDD VSS sg13g2_decap_8
XFILLER_20_287 VDD VSS sg13g2_decap_8
XFILLER_69_28 VDD VSS sg13g2_decap_8
XFILLER_88_700 VDD VSS sg13g2_decap_8
XFILLER_87_210 VDD VSS sg13g2_decap_8
XFILLER_0_637 VDD VSS sg13g2_decap_8
XFILLER_87_287 VDD VSS sg13g2_decap_8
XFILLER_75_416 VDD VSS sg13g2_decap_8
XFILLER_85_49 VDD VSS sg13g2_decap_8
XFILLER_56_630 VDD VSS sg13g2_decap_8
XFILLER_18_21 VDD VSS sg13g2_decap_8
XFILLER_28_343 VDD VSS sg13g2_decap_8
XFILLER_55_140 VDD VSS sg13g2_decap_8
XFILLER_71_611 VDD VSS sg13g2_decap_8
XFILLER_18_98 VDD VSS sg13g2_decap_8
XFILLER_70_154 VDD VSS sg13g2_decap_8
XFILLER_43_357 VDD VSS sg13g2_decap_8
XFILLER_71_688 VDD VSS sg13g2_decap_8
XFILLER_12_700 VDD VSS sg13g2_decap_8
XFILLER_34_42 VDD VSS sg13g2_decap_8
XFILLER_24_560 VDD VSS sg13g2_decap_8
XFILLER_11_210 VDD VSS sg13g2_decap_8
XFILLER_7_203 VDD VSS sg13g2_decap_8
XFILLER_11_287 VDD VSS sg13g2_decap_8
XFILLER_50_63 VDD VSS sg13g2_decap_8
XFILLER_3_420 VDD VSS sg13g2_decap_8
XFILLER_79_700 VDD VSS sg13g2_decap_8
XFILLER_78_210 VDD VSS sg13g2_decap_8
XFILLER_3_497 VDD VSS sg13g2_decap_8
XFILLER_94_714 VDD VSS sg13g2_decap_8
XFILLER_78_287 VDD VSS sg13g2_decap_8
XFILLER_66_427 VDD VSS sg13g2_decap_8
XFILLER_93_224 VDD VSS sg13g2_decap_8
XFILLER_59_490 VDD VSS sg13g2_decap_8
XFILLER_47_630 VDD VSS sg13g2_decap_8
XFILLER_15_7 VDD VSS sg13g2_decap_8
XFILLER_75_60 VDD VSS sg13g2_decap_8
XFILLER_19_343 VDD VSS sg13g2_decap_8
XFILLER_46_140 VDD VSS sg13g2_decap_8
XFILLER_62_644 VDD VSS sg13g2_decap_8
XFILLER_34_357 VDD VSS sg13g2_decap_8
XFILLER_61_154 VDD VSS sg13g2_decap_8
XFILLER_15_560 VDD VSS sg13g2_decap_8
XFILLER_91_70 VDD VSS sg13g2_decap_8
XFILLER_30_574 VDD VSS sg13g2_decap_8
XFILLER_6_280 VDD VSS sg13g2_decap_8
XFILLER_69_210 VDD VSS sg13g2_decap_8
XFILLER_41_0 VDD VSS sg13g2_decap_8
XFILLER_85_714 VDD VSS sg13g2_decap_8
XFILLER_69_254 VDD VSS sg13g2_decap_8
XFILLER_57_427 VDD VSS sg13g2_decap_8
XFILLER_84_224 VDD VSS sg13g2_decap_8
XFILLER_38_630 VDD VSS sg13g2_decap_8
XFILLER_37_140 VDD VSS sg13g2_decap_8
XFILLER_65_493 VDD VSS sg13g2_decap_8
XFILLER_65_471 VDD VSS sg13g2_fill_1
XFILLER_80_441 VDD VSS sg13g2_decap_8
XFILLER_53_644 VDD VSS sg13g2_decap_8
XFILLER_25_357 VDD VSS sg13g2_decap_8
XFILLER_52_154 VDD VSS sg13g2_decap_8
XFILLER_21_574 VDD VSS sg13g2_decap_8
XFILLER_5_707 VDD VSS sg13g2_decap_8
XFILLER_4_217 VDD VSS sg13g2_decap_8
XFILLER_20_77 VDD VSS sg13g2_decap_8
XFILLER_0_434 VDD VSS sg13g2_decap_8
XFILLER_88_574 VDD VSS sg13g2_decap_8
Xhold20 _81_/Q VDD VSS _45_/A sg13g2_dlygate4sd3_1
Xhold31 _58_/Y VDD VSS _77_/D sg13g2_dlygate4sd3_1
XFILLER_29_42 VDD VSS sg13g2_decap_8
XFILLER_48_427 VDD VSS sg13g2_decap_8
XFILLER_75_235 VDD VSS sg13g2_fill_2
XFILLER_29_630 VDD VSS sg13g2_decap_8
XFILLER_91_728 VDD VSS sg13g2_decap_8
XFILLER_75_257 VDD VSS sg13g2_decap_8
XFILLER_28_140 VDD VSS sg13g2_decap_8
XFILLER_90_238 VDD VSS sg13g2_decap_8
X_78__8 VDD VSS _78__8/L_HI sg13g2_tiehi
XFILLER_45_63 VDD VSS sg13g2_decap_8
XFILLER_16_357 VDD VSS sg13g2_decap_8
XFILLER_44_644 VDD VSS sg13g2_decap_8
XFILLER_71_485 VDD VSS sg13g2_decap_8
XFILLER_43_154 VDD VSS sg13g2_decap_8
XFILLER_12_574 VDD VSS sg13g2_decap_8
XFILLER_61_84 VDD VSS sg13g2_decap_8
XFILLER_8_567 VDD VSS sg13g2_decap_8
XFILLER_6_35 VDD VSS sg13g2_decap_8
XFILLER_3_294 VDD VSS sg13g2_decap_8
XFILLER_94_511 VDD VSS sg13g2_decap_8
XFILLER_79_574 VDD VSS sg13g2_decap_8
XFILLER_66_224 VDD VSS sg13g2_decap_8
XFILLER_86_70 VDD VSS sg13g2_decap_8
XFILLER_39_427 VDD VSS sg13g2_decap_8
XFILLER_94_588 VDD VSS sg13g2_decap_8
XFILLER_82_728 VDD VSS sg13g2_decap_8
XFILLER_19_140 VDD VSS sg13g2_decap_8
XFILLER_81_238 VDD VSS sg13g2_decap_8
XFILLER_62_441 VDD VSS sg13g2_decap_8
XFILLER_35_644 VDD VSS sg13g2_decap_8
XFILLER_34_154 VDD VSS sg13g2_decap_8
XFILLER_50_658 VDD VSS sg13g2_decap_8
XFILLER_89_0 VDD VSS sg13g2_decap_8
XFILLER_30_371 VDD VSS sg13g2_decap_8
XFILLER_85_511 VDD VSS sg13g2_decap_8
XFILLER_58_714 VDD VSS sg13g2_decap_8
XFILLER_57_224 VDD VSS sg13g2_decap_8
XFILLER_85_588 VDD VSS sg13g2_decap_8
XFILLER_26_622 VDD VSS sg13g2_decap_8
XFILLER_72_249 VDD VSS sg13g2_decap_8
XFILLER_82_28 VDD VSS sg13g2_decap_8
XFILLER_53_441 VDD VSS sg13g2_decap_8
XFILLER_25_154 VDD VSS sg13g2_decap_8
XFILLER_26_699 VDD VSS sg13g2_decap_8
XFILLER_41_658 VDD VSS sg13g2_decap_8
XFILLER_15_77 VDD VSS sg13g2_decap_8
XFILLER_40_168 VDD VSS sg13g2_decap_8
XFILLER_21_371 VDD VSS sg13g2_decap_8
XFILLER_5_504 VDD VSS sg13g2_decap_8
XFILLER_31_21 VDD VSS sg13g2_decap_8
XFILLER_31_98 VDD VSS sg13g2_decap_8
XFILLER_1_721 VDD VSS sg13g2_decap_8
XFILLER_95_308 VDD VSS sg13g2_decap_8
XFILLER_49_714 VDD VSS sg13g2_decap_8
XFILLER_0_231 VDD VSS sg13g2_decap_8
XFILLER_88_371 VDD VSS sg13g2_decap_8
XFILLER_48_224 VDD VSS sg13g2_decap_8
XFILLER_76_566 VDD VSS sg13g2_decap_8
XFILLER_91_525 VDD VSS sg13g2_decap_8
XFILLER_64_728 VDD VSS sg13g2_decap_8
XFILLER_56_84 VDD VSS sg13g2_decap_8
XFILLER_63_238 VDD VSS sg13g2_decap_8
XFILLER_44_441 VDD VSS sg13g2_decap_8
XFILLER_17_644 VDD VSS sg13g2_decap_8
XFILLER_16_154 VDD VSS sg13g2_decap_8
XFILLER_32_658 VDD VSS sg13g2_decap_8
XFILLER_31_168 VDD VSS sg13g2_decap_8
XFILLER_82_7 VDD VSS sg13g2_decap_8
XFILLER_12_371 VDD VSS sg13g2_decap_8
XFILLER_8_364 VDD VSS sg13g2_decap_8
XFILLER_4_581 VDD VSS sg13g2_decap_8
XFILLER_86_308 VDD VSS sg13g2_decap_8
XFILLER_79_371 VDD VSS sg13g2_decap_8
XFILLER_39_224 VDD VSS sg13g2_decap_8
XFILLER_67_555 VDD VSS sg13g2_decap_8
XFILLER_82_525 VDD VSS sg13g2_decap_8
XFILLER_94_385 VDD VSS sg13g2_decap_8
XFILLER_55_728 VDD VSS sg13g2_decap_8
XFILLER_35_441 VDD VSS sg13g2_decap_8
XFILLER_54_238 VDD VSS sg13g2_decap_8
XFILLER_10_308 VDD VSS sg13g2_decap_8
XFILLER_50_455 VDD VSS sg13g2_decap_8
XFILLER_23_658 VDD VSS sg13g2_decap_8
XFILLER_22_168 VDD VSS sg13g2_decap_8
XFILLER_2_518 VDD VSS sg13g2_decap_8
XFILLER_77_28 VDD VSS sg13g2_decap_8
XFILLER_89_168 VDD VSS sg13g2_decap_8
XFILLER_58_511 VDD VSS sg13g2_decap_8
XFILLER_85_385 VDD VSS sg13g2_decap_8
XFILLER_58_588 VDD VSS sg13g2_decap_8
XFILLER_46_728 VDD VSS sg13g2_decap_8
XFILLER_73_569 VDD VSS sg13g2_decap_8
XFILLER_93_49 VDD VSS sg13g2_decap_8
XFILLER_26_21 VDD VSS sg13g2_decap_8
XFILLER_45_238 VDD VSS sg13g2_decap_8
XFILLER_26_98 VDD VSS sg13g2_decap_8
XFILLER_26_496 VDD VSS sg13g2_decap_8
XFILLER_41_455 VDD VSS sg13g2_decap_8
XFILLER_14_658 VDD VSS sg13g2_decap_8
XFILLER_13_168 VDD VSS sg13g2_decap_8
XFILLER_42_42 VDD VSS sg13g2_decap_8
XFILLER_5_301 VDD VSS sg13g2_decap_8
XFILLER_5_378 VDD VSS sg13g2_decap_8
XFILLER_95_105 VDD VSS sg13g2_decap_8
XFILLER_3_14 VDD VSS sg13g2_decap_8
XFILLER_49_511 VDD VSS sg13g2_decap_8
XFILLER_1_595 VDD VSS sg13g2_decap_8
X_81_ _81__9/L_HI VSS VDD _81_/D _81_/Q _83_/CLK sg13g2_dfrbpq_1
XFILLER_76_341 VDD VSS sg13g2_decap_8
XFILLER_64_525 VDD VSS sg13g2_decap_8
XFILLER_49_588 VDD VSS sg13g2_decap_8
XFILLER_37_728 VDD VSS sg13g2_decap_8
XFILLER_91_322 VDD VSS sg13g2_decap_8
XFILLER_36_238 VDD VSS sg13g2_decap_8
XFILLER_17_441 VDD VSS sg13g2_decap_8
XFILLER_91_399 VDD VSS sg13g2_decap_8
XFILLER_60_742 VDD VSS sg13g2_decap_8
XFILLER_32_455 VDD VSS sg13g2_decap_8
XFILLER_9_651 VDD VSS sg13g2_decap_8
XFILLER_8_161 VDD VSS sg13g2_decap_8
XFILLER_86_105 VDD VSS sg13g2_decap_8
XFILLER_59_308 VDD VSS sg13g2_decap_8
XFILLER_67_352 VDD VSS sg13g2_decap_8
XFILLER_95_672 VDD VSS sg13g2_decap_8
XFILLER_55_525 VDD VSS sg13g2_decap_8
XFILLER_28_728 VDD VSS sg13g2_decap_8
XFILLER_94_182 VDD VSS sg13g2_decap_8
XFILLER_82_322 VDD VSS sg13g2_decap_8
XFILLER_27_238 VDD VSS sg13g2_decap_8
XFILLER_82_399 VDD VSS sg13g2_decap_8
XFILLER_51_742 VDD VSS sg13g2_decap_8
XFILLER_23_455 VDD VSS sg13g2_decap_8
XIO_BOND_outputs\[4\].output_pad output_PAD[4] bondpad_70x70_novias
XFILLER_10_105 VDD VSS sg13g2_decap_8
XFILLER_50_252 VDD VSS sg13g2_decap_8
XFILLER_12_56 VDD VSS sg13g2_decap_8
XFILLER_88_49 VDD VSS sg13g2_decap_8
XFILLER_2_315 VDD VSS sg13g2_decap_8
XFILLER_77_105 VDD VSS sg13g2_decap_8
XFILLER_93_609 VDD VSS sg13g2_decap_8
XFILLER_86_672 VDD VSS sg13g2_decap_8
XFILLER_92_119 VDD VSS sg13g2_decap_8
XFILLER_73_311 VDD VSS sg13g2_decap_8
XFILLER_46_525 VDD VSS sg13g2_decap_8
XFILLER_37_42 VDD VSS sg13g2_decap_8
XFILLER_58_385 VDD VSS sg13g2_decap_8
XFILLER_19_728 VDD VSS sg13g2_decap_8
XFILLER_85_182 VDD VSS sg13g2_decap_8
XFILLER_18_238 VDD VSS sg13g2_decap_8
XFILLER_61_539 VDD VSS sg13g2_decap_8
XFILLER_53_63 VDD VSS sg13g2_decap_8
XFILLER_14_455 VDD VSS sg13g2_decap_8
XFILLER_42_742 VDD VSS sg13g2_decap_8
XFILLER_41_252 VDD VSS sg13g2_decap_8
XFILLER_10_672 VDD VSS sg13g2_decap_8
XFILLER_6_665 VDD VSS sg13g2_decap_8
XFILLER_5_175 VDD VSS sg13g2_decap_8
XFILLER_45_7 VDD VSS sg13g2_decap_8
XFILLER_68_105 VDD VSS sg13g2_decap_8
XFILLER_84_609 VDD VSS sg13g2_decap_8
XFILLER_1_392 VDD VSS sg13g2_decap_8
XFILLER_83_119 VDD VSS sg13g2_decap_8
X_64_ _64_/A _65_/B _64_/Y VDD VSS sg13g2_nor2b_1
XFILLER_37_525 VDD VSS sg13g2_decap_8
XFILLER_76_182 VDD VSS sg13g2_decap_8
XFILLER_64_322 VDD VSS sg13g2_decap_8
XFILLER_94_70 VDD VSS sg13g2_decap_8
XFILLER_49_385 VDD VSS sg13g2_decap_8
XFILLER_92_686 VDD VSS sg13g2_decap_8
XFILLER_91_196 VDD VSS sg13g2_decap_8
XFILLER_64_399 VDD VSS sg13g2_decap_8
XFILLER_52_539 VDD VSS sg13g2_decap_8
XFILLER_33_742 VDD VSS sg13g2_decap_8
XFILLER_32_252 VDD VSS sg13g2_decap_8