*SPEF "ieee 1481-1999"
*DESIGN "FMD_QNC_Padframe32"
*DATE "18:15:28 Tuesday September 09, 2025"
*VENDOR "The OpenROAD Project"
*PROGRAM "OpenROAD"
*VERSION "341650e72dad0dc8571822ff8c5d9c5e365327f7"
*DESIGN_FLOW "NAME_SCOPE LOCAL" "PIN_CAP NONE"
*DIVIDER /
*DELIMITER :
*BUS_DELIMITER []
*T_UNIT 1 NS
*C_UNIT 1 PF
*R_UNIT 1 OHM
*L_UNIT 1 HENRY

*NAME_MAP
*7 ui_PAD[0]
*8 ui_PAD[10]
*9 ui_PAD[11]
*10 ui_PAD[12]
*11 ui_PAD[13]
*12 ui_PAD[1]
*13 ui_PAD[2]
*14 ui_PAD[3]
*15 ui_PAD[4]
*16 ui_PAD[5]
*17 ui_PAD[6]
*18 ui_PAD[7]
*19 ui_PAD[8]
*20 ui_PAD[9]
*21 uo_PAD[0]
*22 uo_PAD[10]
*23 uo_PAD[11]
*24 uo_PAD[12]
*25 uo_PAD[13]
*26 uo_PAD[1]
*27 uo_PAD[2]
*28 uo_PAD[3]
*29 uo_PAD[4]
*30 uo_PAD[5]
*31 uo_PAD[6]
*32 uo_PAD[7]
*33 uo_PAD[8]
*34 uo_PAD[9]
*37 ui_PAD2CORE\[0\]
*38 ui_PAD2CORE\[10\]
*39 ui_PAD2CORE\[11\]
*40 ui_PAD2CORE\[12\]
*41 ui_PAD2CORE\[13\]
*42 ui_PAD2CORE\[1\]
*43 ui_PAD2CORE\[2\]
*44 ui_PAD2CORE\[3\]
*45 ui_PAD2CORE\[4\]
*46 ui_PAD2CORE\[5\]
*47 ui_PAD2CORE\[6\]
*48 ui_PAD2CORE\[7\]
*49 ui_PAD2CORE\[8\]
*50 ui_PAD2CORE\[9\]
*51 FILLER_0_0
*52 FILLER_0_1001
*53 FILLER_0_1008
*54 FILLER_0_1015
*55 FILLER_0_1022
*56 FILLER_0_1029
*57 FILLER_0_1036
*58 FILLER_0_1043
*59 FILLER_0_105
*60 FILLER_0_1050
*61 FILLER_0_1057
*62 FILLER_0_1064
*63 FILLER_0_1071
*64 FILLER_0_1078
*65 FILLER_0_1085
*66 FILLER_0_1092
*67 FILLER_0_1099
*68 FILLER_0_1106
*69 FILLER_0_1113
*70 FILLER_0_112
*71 FILLER_0_1120
*72 FILLER_0_1127
*73 FILLER_0_1134
*74 FILLER_0_1141
*75 FILLER_0_1148
*76 FILLER_0_1155
*77 FILLER_0_1162
*78 FILLER_0_1169
*79 FILLER_0_1173
*80 FILLER_0_119
*81 FILLER_0_126
*82 FILLER_0_133
*83 FILLER_0_14
*84 FILLER_0_140
*85 FILLER_0_147
*86 FILLER_0_154
*87 FILLER_0_161
*88 FILLER_0_168
*89 FILLER_0_175
*90 FILLER_0_182
*91 FILLER_0_189
*92 FILLER_0_196
*93 FILLER_0_203
*94 FILLER_0_21
*95 FILLER_0_210
*96 FILLER_0_217
*97 FILLER_0_224
*98 FILLER_0_231
*99 FILLER_0_238
*100 FILLER_0_245
*101 FILLER_0_252
*102 FILLER_0_259
*103 FILLER_0_266
*104 FILLER_0_273
*105 FILLER_0_28
*106 FILLER_0_280
*107 FILLER_0_287
*108 FILLER_0_294
*109 FILLER_0_301
*110 FILLER_0_308
*111 FILLER_0_315
*112 FILLER_0_322
*113 FILLER_0_329
*114 FILLER_0_336
*115 FILLER_0_343
*116 FILLER_0_35
*117 FILLER_0_350
*118 FILLER_0_357
*119 FILLER_0_364
*120 FILLER_0_371
*121 FILLER_0_378
*122 FILLER_0_385
*123 FILLER_0_392
*124 FILLER_0_399
*125 FILLER_0_406
*126 FILLER_0_413
*127 FILLER_0_42
*128 FILLER_0_420
*129 FILLER_0_427
*130 FILLER_0_434
*131 FILLER_0_441
*132 FILLER_0_448
*133 FILLER_0_455
*134 FILLER_0_462
*135 FILLER_0_469
*136 FILLER_0_476
*137 FILLER_0_483
*138 FILLER_0_49
*139 FILLER_0_490
*140 FILLER_0_497
*141 FILLER_0_504
*142 FILLER_0_511
*143 FILLER_0_518
*144 FILLER_0_525
*145 FILLER_0_532
*146 FILLER_0_539
*147 FILLER_0_546
*148 FILLER_0_553
*149 FILLER_0_56
*150 FILLER_0_560
*151 FILLER_0_567
*152 FILLER_0_574
*153 FILLER_0_581
*154 FILLER_0_588
*155 FILLER_0_595
*156 FILLER_0_602
*157 FILLER_0_609
*158 FILLER_0_616
*159 FILLER_0_623
*160 FILLER_0_63
*161 FILLER_0_630
*162 FILLER_0_637
*163 FILLER_0_644
*164 FILLER_0_651
*165 FILLER_0_658
*166 FILLER_0_665
*167 FILLER_0_672
*168 FILLER_0_679
*169 FILLER_0_686
*170 FILLER_0_693
*171 FILLER_0_7
*172 FILLER_0_70
*173 FILLER_0_700
*174 FILLER_0_707
*175 FILLER_0_714
*176 FILLER_0_721
*177 FILLER_0_728
*178 FILLER_0_735
*179 FILLER_0_742
*180 FILLER_0_749
*181 FILLER_0_756
*182 FILLER_0_763
*183 FILLER_0_77
*184 FILLER_0_770
*185 FILLER_0_777
*186 FILLER_0_784
*187 FILLER_0_791
*188 FILLER_0_798
*189 FILLER_0_805
*190 FILLER_0_812
*191 FILLER_0_819
*192 FILLER_0_826
*193 FILLER_0_833
*194 FILLER_0_84
*195 FILLER_0_840
*196 FILLER_0_847
*197 FILLER_0_854
*198 FILLER_0_861
*199 FILLER_0_868
*200 FILLER_0_875
*201 FILLER_0_882
*202 FILLER_0_889
*203 FILLER_0_896
*204 FILLER_0_903
*205 FILLER_0_91
*206 FILLER_0_910
*207 FILLER_0_917
*208 FILLER_0_924
*209 FILLER_0_931
*210 FILLER_0_938
*211 FILLER_0_945
*212 FILLER_0_952
*213 FILLER_0_959
*214 FILLER_0_966
*215 FILLER_0_973
*216 FILLER_0_98
*217 FILLER_0_980
*218 FILLER_0_987
*219 FILLER_0_994
*220 FILLER_100_0
*221 FILLER_100_1001
*222 FILLER_100_1008
*223 FILLER_100_1015
*224 FILLER_100_1022
*225 FILLER_100_1029
*226 FILLER_100_1036
*227 FILLER_100_1043
*228 FILLER_100_105
*229 FILLER_100_1050
*230 FILLER_100_1057
*231 FILLER_100_1064
*232 FILLER_100_1071
*233 FILLER_100_1078
*234 FILLER_100_1085
*235 FILLER_100_1092
*236 FILLER_100_1099
*237 FILLER_100_1106
*238 FILLER_100_1113
*239 FILLER_100_112
*240 FILLER_100_1120
*241 FILLER_100_1127
*242 FILLER_100_1134
*243 FILLER_100_1141
*244 FILLER_100_1148
*245 FILLER_100_1155
*246 FILLER_100_1162
*247 FILLER_100_1169
*248 FILLER_100_1173
*249 FILLER_100_119
*250 FILLER_100_126
*251 FILLER_100_133
*252 FILLER_100_14
*253 FILLER_100_140
*254 FILLER_100_147
*255 FILLER_100_154
*256 FILLER_100_161
*257 FILLER_100_168
*258 FILLER_100_175
*259 FILLER_100_182
*260 FILLER_100_189
*261 FILLER_100_196
*262 FILLER_100_203
*263 FILLER_100_21
*264 FILLER_100_210
*265 FILLER_100_217
*266 FILLER_100_224
*267 FILLER_100_231
*268 FILLER_100_238
*269 FILLER_100_245
*270 FILLER_100_252
*271 FILLER_100_259
*272 FILLER_100_266
*273 FILLER_100_273
*274 FILLER_100_28
*275 FILLER_100_280
*276 FILLER_100_287
*277 FILLER_100_294
*278 FILLER_100_301
*279 FILLER_100_308
*280 FILLER_100_315
*281 FILLER_100_322
*282 FILLER_100_329
*283 FILLER_100_336
*284 FILLER_100_343
*285 FILLER_100_35
*286 FILLER_100_350
*287 FILLER_100_357
*288 FILLER_100_364
*289 FILLER_100_371
*290 FILLER_100_378
*291 FILLER_100_385
*292 FILLER_100_392
*293 FILLER_100_399
*294 FILLER_100_406
*295 FILLER_100_413
*296 FILLER_100_42
*297 FILLER_100_420
*298 FILLER_100_427
*299 FILLER_100_434
*300 FILLER_100_441
*301 FILLER_100_448
*302 FILLER_100_455
*303 FILLER_100_462
*304 FILLER_100_469
*305 FILLER_100_476
*306 FILLER_100_483
*307 FILLER_100_49
*308 FILLER_100_490
*309 FILLER_100_497
*310 FILLER_100_504
*311 FILLER_100_511
*312 FILLER_100_518
*313 FILLER_100_525
*314 FILLER_100_532
*315 FILLER_100_539
*316 FILLER_100_546
*317 FILLER_100_553
*318 FILLER_100_56
*319 FILLER_100_560
*320 FILLER_100_567
*321 FILLER_100_574
*322 FILLER_100_581
*323 FILLER_100_588
*324 FILLER_100_595
*325 FILLER_100_602
*326 FILLER_100_609
*327 FILLER_100_616
*328 FILLER_100_623
*329 FILLER_100_63
*330 FILLER_100_630
*331 FILLER_100_637
*332 FILLER_100_644
*333 FILLER_100_651
*334 FILLER_100_658
*335 FILLER_100_665
*336 FILLER_100_672
*337 FILLER_100_679
*338 FILLER_100_686
*339 FILLER_100_693
*340 FILLER_100_7
*341 FILLER_100_70
*342 FILLER_100_700
*343 FILLER_100_707
*344 FILLER_100_714
*345 FILLER_100_721
*346 FILLER_100_728
*347 FILLER_100_735
*348 FILLER_100_742
*349 FILLER_100_749
*350 FILLER_100_756
*351 FILLER_100_763
*352 FILLER_100_77
*353 FILLER_100_770
*354 FILLER_100_777
*355 FILLER_100_784
*356 FILLER_100_791
*357 FILLER_100_798
*358 FILLER_100_805
*359 FILLER_100_812
*360 FILLER_100_819
*361 FILLER_100_826
*362 FILLER_100_833
*363 FILLER_100_84
*364 FILLER_100_840
*365 FILLER_100_847
*366 FILLER_100_854
*367 FILLER_100_861
*368 FILLER_100_868
*369 FILLER_100_875
*370 FILLER_100_882
*371 FILLER_100_889
*372 FILLER_100_896
*373 FILLER_100_903
*374 FILLER_100_91
*375 FILLER_100_910
*376 FILLER_100_917
*377 FILLER_100_924
*378 FILLER_100_931
*379 FILLER_100_938
*380 FILLER_100_945
*381 FILLER_100_952
*382 FILLER_100_959
*383 FILLER_100_966
*384 FILLER_100_973
*385 FILLER_100_98
*386 FILLER_100_980
*387 FILLER_100_987
*388 FILLER_100_994
*389 FILLER_101_0
*390 FILLER_101_1001
*391 FILLER_101_1008
*392 FILLER_101_1015
*393 FILLER_101_1022
*394 FILLER_101_1029
*395 FILLER_101_1036
*396 FILLER_101_1043
*397 FILLER_101_105
*398 FILLER_101_1050
*399 FILLER_101_1057
*400 FILLER_101_1064
*401 FILLER_101_1071
*402 FILLER_101_1078
*403 FILLER_101_1085
*404 FILLER_101_1092
*405 FILLER_101_1099
*406 FILLER_101_1106
*407 FILLER_101_1113
*408 FILLER_101_112
*409 FILLER_101_1120
*410 FILLER_101_1127
*411 FILLER_101_1134
*412 FILLER_101_1141
*413 FILLER_101_1148
*414 FILLER_101_1155
*415 FILLER_101_1162
*416 FILLER_101_1169
*417 FILLER_101_1173
*418 FILLER_101_119
*419 FILLER_101_126
*420 FILLER_101_133
*421 FILLER_101_14
*422 FILLER_101_140
*423 FILLER_101_147
*424 FILLER_101_154
*425 FILLER_101_161
*426 FILLER_101_168
*427 FILLER_101_175
*428 FILLER_101_182
*429 FILLER_101_189
*430 FILLER_101_196
*431 FILLER_101_203
*432 FILLER_101_21
*433 FILLER_101_210
*434 FILLER_101_217
*435 FILLER_101_224
*436 FILLER_101_231
*437 FILLER_101_238
*438 FILLER_101_245
*439 FILLER_101_252
*440 FILLER_101_259
*441 FILLER_101_266
*442 FILLER_101_273
*443 FILLER_101_28
*444 FILLER_101_280
*445 FILLER_101_287
*446 FILLER_101_294
*447 FILLER_101_301
*448 FILLER_101_308
*449 FILLER_101_315
*450 FILLER_101_322
*451 FILLER_101_329
*452 FILLER_101_336
*453 FILLER_101_343
*454 FILLER_101_35
*455 FILLER_101_350
*456 FILLER_101_357
*457 FILLER_101_364
*458 FILLER_101_371
*459 FILLER_101_378
*460 FILLER_101_385
*461 FILLER_101_392
*462 FILLER_101_399
*463 FILLER_101_406
*464 FILLER_101_413
*465 FILLER_101_42
*466 FILLER_101_420
*467 FILLER_101_427
*468 FILLER_101_434
*469 FILLER_101_441
*470 FILLER_101_448
*471 FILLER_101_455
*472 FILLER_101_462
*473 FILLER_101_469
*474 FILLER_101_476
*475 FILLER_101_483
*476 FILLER_101_49
*477 FILLER_101_490
*478 FILLER_101_497
*479 FILLER_101_504
*480 FILLER_101_511
*481 FILLER_101_518
*482 FILLER_101_525
*483 FILLER_101_532
*484 FILLER_101_539
*485 FILLER_101_546
*486 FILLER_101_553
*487 FILLER_101_56
*488 FILLER_101_560
*489 FILLER_101_567
*490 FILLER_101_574
*491 FILLER_101_581
*492 FILLER_101_588
*493 FILLER_101_595
*494 FILLER_101_602
*495 FILLER_101_609
*496 FILLER_101_616
*497 FILLER_101_623
*498 FILLER_101_63
*499 FILLER_101_630
*500 FILLER_101_637
*501 FILLER_101_644
*502 FILLER_101_651
*503 FILLER_101_658
*504 FILLER_101_665
*505 FILLER_101_672
*506 FILLER_101_679
*507 FILLER_101_686
*508 FILLER_101_693
*509 FILLER_101_7
*510 FILLER_101_70
*511 FILLER_101_700
*512 FILLER_101_707
*513 FILLER_101_714
*514 FILLER_101_721
*515 FILLER_101_728
*516 FILLER_101_735
*517 FILLER_101_742
*518 FILLER_101_749
*519 FILLER_101_756
*520 FILLER_101_763
*521 FILLER_101_77
*522 FILLER_101_770
*523 FILLER_101_777
*524 FILLER_101_784
*525 FILLER_101_791
*526 FILLER_101_798
*527 FILLER_101_805
*528 FILLER_101_812
*529 FILLER_101_819
*530 FILLER_101_826
*531 FILLER_101_833
*532 FILLER_101_84
*533 FILLER_101_840
*534 FILLER_101_847
*535 FILLER_101_854
*536 FILLER_101_861
*537 FILLER_101_868
*538 FILLER_101_875
*539 FILLER_101_882
*540 FILLER_101_889
*541 FILLER_101_896
*542 FILLER_101_903
*543 FILLER_101_91
*544 FILLER_101_910
*545 FILLER_101_917
*546 FILLER_101_924
*547 FILLER_101_931
*548 FILLER_101_938
*549 FILLER_101_945
*550 FILLER_101_952
*551 FILLER_101_959
*552 FILLER_101_966
*553 FILLER_101_973
*554 FILLER_101_98
*555 FILLER_101_980
*556 FILLER_101_987
*557 FILLER_101_994
*558 FILLER_102_0
*559 FILLER_102_1001
*560 FILLER_102_1008
*561 FILLER_102_1015
*562 FILLER_102_1022
*563 FILLER_102_1029
*564 FILLER_102_1036
*565 FILLER_102_1043
*566 FILLER_102_105
*567 FILLER_102_1050
*568 FILLER_102_1057
*569 FILLER_102_1064
*570 FILLER_102_1071
*571 FILLER_102_1078
*572 FILLER_102_1085
*573 FILLER_102_1092
*574 FILLER_102_1099
*575 FILLER_102_1106
*576 FILLER_102_1113
*577 FILLER_102_112
*578 FILLER_102_1120
*579 FILLER_102_1127
*580 FILLER_102_1134
*581 FILLER_102_1141
*582 FILLER_102_1148
*583 FILLER_102_1155
*584 FILLER_102_1162
*585 FILLER_102_1169
*586 FILLER_102_1173
*587 FILLER_102_119
*588 FILLER_102_126
*589 FILLER_102_133
*590 FILLER_102_14
*591 FILLER_102_140
*592 FILLER_102_147
*593 FILLER_102_154
*594 FILLER_102_161
*595 FILLER_102_168
*596 FILLER_102_175
*597 FILLER_102_182
*598 FILLER_102_189
*599 FILLER_102_196
*600 FILLER_102_203
*601 FILLER_102_21
*602 FILLER_102_210
*603 FILLER_102_217
*604 FILLER_102_224
*605 FILLER_102_231
*606 FILLER_102_238
*607 FILLER_102_245
*608 FILLER_102_252
*609 FILLER_102_259
*610 FILLER_102_266
*611 FILLER_102_273
*612 FILLER_102_28
*613 FILLER_102_280
*614 FILLER_102_287
*615 FILLER_102_294
*616 FILLER_102_301
*617 FILLER_102_308
*618 FILLER_102_315
*619 FILLER_102_322
*620 FILLER_102_329
*621 FILLER_102_336
*622 FILLER_102_343
*623 FILLER_102_35
*624 FILLER_102_350
*625 FILLER_102_357
*626 FILLER_102_364
*627 FILLER_102_371
*628 FILLER_102_378
*629 FILLER_102_385
*630 FILLER_102_392
*631 FILLER_102_399
*632 FILLER_102_406
*633 FILLER_102_413
*634 FILLER_102_42
*635 FILLER_102_420
*636 FILLER_102_427
*637 FILLER_102_434
*638 FILLER_102_441
*639 FILLER_102_448
*640 FILLER_102_455
*641 FILLER_102_462
*642 FILLER_102_469
*643 FILLER_102_476
*644 FILLER_102_483
*645 FILLER_102_49
*646 FILLER_102_490
*647 FILLER_102_497
*648 FILLER_102_504
*649 FILLER_102_511
*650 FILLER_102_518
*651 FILLER_102_525
*652 FILLER_102_532
*653 FILLER_102_539
*654 FILLER_102_546
*655 FILLER_102_553
*656 FILLER_102_56
*657 FILLER_102_560
*658 FILLER_102_567
*659 FILLER_102_574
*660 FILLER_102_581
*661 FILLER_102_588
*662 FILLER_102_595
*663 FILLER_102_602
*664 FILLER_102_609
*665 FILLER_102_616
*666 FILLER_102_623
*667 FILLER_102_63
*668 FILLER_102_630
*669 FILLER_102_637
*670 FILLER_102_644
*671 FILLER_102_651
*672 FILLER_102_658
*673 FILLER_102_665
*674 FILLER_102_672
*675 FILLER_102_679
*676 FILLER_102_686
*677 FILLER_102_693
*678 FILLER_102_7
*679 FILLER_102_70
*680 FILLER_102_700
*681 FILLER_102_707
*682 FILLER_102_714
*683 FILLER_102_721
*684 FILLER_102_728
*685 FILLER_102_735
*686 FILLER_102_742
*687 FILLER_102_749
*688 FILLER_102_756
*689 FILLER_102_763
*690 FILLER_102_77
*691 FILLER_102_770
*692 FILLER_102_777
*693 FILLER_102_784
*694 FILLER_102_791
*695 FILLER_102_798
*696 FILLER_102_805
*697 FILLER_102_812
*698 FILLER_102_819
*699 FILLER_102_826
*700 FILLER_102_833
*701 FILLER_102_84
*702 FILLER_102_840
*703 FILLER_102_847
*704 FILLER_102_854
*705 FILLER_102_861
*706 FILLER_102_868
*707 FILLER_102_875
*708 FILLER_102_882
*709 FILLER_102_889
*710 FILLER_102_896
*711 FILLER_102_903
*712 FILLER_102_91
*713 FILLER_102_910
*714 FILLER_102_917
*715 FILLER_102_924
*716 FILLER_102_931
*717 FILLER_102_938
*718 FILLER_102_945
*719 FILLER_102_952
*720 FILLER_102_959
*721 FILLER_102_966
*722 FILLER_102_973
*723 FILLER_102_98
*724 FILLER_102_980
*725 FILLER_102_987
*726 FILLER_102_994
*727 FILLER_103_0
*728 FILLER_103_1001
*729 FILLER_103_1008
*730 FILLER_103_1015
*731 FILLER_103_1022
*732 FILLER_103_1029
*733 FILLER_103_1036
*734 FILLER_103_1043
*735 FILLER_103_105
*736 FILLER_103_1050
*737 FILLER_103_1057
*738 FILLER_103_1064
*739 FILLER_103_1071
*740 FILLER_103_1078
*741 FILLER_103_1085
*742 FILLER_103_1092
*743 FILLER_103_1099
*744 FILLER_103_1106
*745 FILLER_103_1113
*746 FILLER_103_112
*747 FILLER_103_1120
*748 FILLER_103_1127
*749 FILLER_103_1134
*750 FILLER_103_1141
*751 FILLER_103_1148
*752 FILLER_103_1155
*753 FILLER_103_1162
*754 FILLER_103_1169
*755 FILLER_103_1173
*756 FILLER_103_119
*757 FILLER_103_126
*758 FILLER_103_133
*759 FILLER_103_14
*760 FILLER_103_140
*761 FILLER_103_147
*762 FILLER_103_154
*763 FILLER_103_161
*764 FILLER_103_168
*765 FILLER_103_175
*766 FILLER_103_182
*767 FILLER_103_189
*768 FILLER_103_196
*769 FILLER_103_203
*770 FILLER_103_21
*771 FILLER_103_210
*772 FILLER_103_217
*773 FILLER_103_224
*774 FILLER_103_231
*775 FILLER_103_238
*776 FILLER_103_245
*777 FILLER_103_252
*778 FILLER_103_259
*779 FILLER_103_266
*780 FILLER_103_273
*781 FILLER_103_28
*782 FILLER_103_280
*783 FILLER_103_287
*784 FILLER_103_294
*785 FILLER_103_301
*786 FILLER_103_308
*787 FILLER_103_315
*788 FILLER_103_322
*789 FILLER_103_329
*790 FILLER_103_336
*791 FILLER_103_343
*792 FILLER_103_35
*793 FILLER_103_350
*794 FILLER_103_357
*795 FILLER_103_364
*796 FILLER_103_371
*797 FILLER_103_378
*798 FILLER_103_385
*799 FILLER_103_392
*800 FILLER_103_399
*801 FILLER_103_406
*802 FILLER_103_413
*803 FILLER_103_42
*804 FILLER_103_420
*805 FILLER_103_427
*806 FILLER_103_434
*807 FILLER_103_441
*808 FILLER_103_448
*809 FILLER_103_455
*810 FILLER_103_462
*811 FILLER_103_469
*812 FILLER_103_476
*813 FILLER_103_483
*814 FILLER_103_49
*815 FILLER_103_490
*816 FILLER_103_497
*817 FILLER_103_504
*818 FILLER_103_511
*819 FILLER_103_518
*820 FILLER_103_525
*821 FILLER_103_532
*822 FILLER_103_539
*823 FILLER_103_546
*824 FILLER_103_553
*825 FILLER_103_56
*826 FILLER_103_560
*827 FILLER_103_567
*828 FILLER_103_574
*829 FILLER_103_581
*830 FILLER_103_588
*831 FILLER_103_595
*832 FILLER_103_602
*833 FILLER_103_609
*834 FILLER_103_616
*835 FILLER_103_623
*836 FILLER_103_63
*837 FILLER_103_630
*838 FILLER_103_637
*839 FILLER_103_644
*840 FILLER_103_651
*841 FILLER_103_658
*842 FILLER_103_665
*843 FILLER_103_672
*844 FILLER_103_679
*845 FILLER_103_686
*846 FILLER_103_693
*847 FILLER_103_7
*848 FILLER_103_70
*849 FILLER_103_700
*850 FILLER_103_707
*851 FILLER_103_714
*852 FILLER_103_721
*853 FILLER_103_728
*854 FILLER_103_735
*855 FILLER_103_742
*856 FILLER_103_749
*857 FILLER_103_756
*858 FILLER_103_763
*859 FILLER_103_77
*860 FILLER_103_770
*861 FILLER_103_777
*862 FILLER_103_784
*863 FILLER_103_791
*864 FILLER_103_798
*865 FILLER_103_805
*866 FILLER_103_812
*867 FILLER_103_819
*868 FILLER_103_826
*869 FILLER_103_833
*870 FILLER_103_84
*871 FILLER_103_840
*872 FILLER_103_847
*873 FILLER_103_854
*874 FILLER_103_861
*875 FILLER_103_868
*876 FILLER_103_875
*877 FILLER_103_882
*878 FILLER_103_889
*879 FILLER_103_896
*880 FILLER_103_903
*881 FILLER_103_91
*882 FILLER_103_910
*883 FILLER_103_917
*884 FILLER_103_924
*885 FILLER_103_931
*886 FILLER_103_938
*887 FILLER_103_945
*888 FILLER_103_952
*889 FILLER_103_959
*890 FILLER_103_966
*891 FILLER_103_973
*892 FILLER_103_98
*893 FILLER_103_980
*894 FILLER_103_987
*895 FILLER_103_994
*896 FILLER_104_0
*897 FILLER_104_1001
*898 FILLER_104_1008
*899 FILLER_104_1015
*900 FILLER_104_1022
*901 FILLER_104_1029
*902 FILLER_104_1036
*903 FILLER_104_1043
*904 FILLER_104_105
*905 FILLER_104_1050
*906 FILLER_104_1057
*907 FILLER_104_1064
*908 FILLER_104_1071
*909 FILLER_104_1078
*910 FILLER_104_1085
*911 FILLER_104_1092
*912 FILLER_104_1099
*913 FILLER_104_1106
*914 FILLER_104_1113
*915 FILLER_104_112
*916 FILLER_104_1120
*917 FILLER_104_1127
*918 FILLER_104_1134
*919 FILLER_104_1141
*920 FILLER_104_1148
*921 FILLER_104_1155
*922 FILLER_104_1162
*923 FILLER_104_1169
*924 FILLER_104_1173
*925 FILLER_104_119
*926 FILLER_104_126
*927 FILLER_104_133
*928 FILLER_104_14
*929 FILLER_104_140
*930 FILLER_104_147
*931 FILLER_104_154
*932 FILLER_104_161
*933 FILLER_104_168
*934 FILLER_104_175
*935 FILLER_104_182
*936 FILLER_104_189
*937 FILLER_104_196
*938 FILLER_104_203
*939 FILLER_104_21
*940 FILLER_104_210
*941 FILLER_104_217
*942 FILLER_104_224
*943 FILLER_104_231
*944 FILLER_104_238
*945 FILLER_104_245
*946 FILLER_104_252
*947 FILLER_104_259
*948 FILLER_104_266
*949 FILLER_104_273
*950 FILLER_104_28
*951 FILLER_104_280
*952 FILLER_104_287
*953 FILLER_104_294
*954 FILLER_104_301
*955 FILLER_104_308
*956 FILLER_104_315
*957 FILLER_104_322
*958 FILLER_104_329
*959 FILLER_104_336
*960 FILLER_104_343
*961 FILLER_104_35
*962 FILLER_104_350
*963 FILLER_104_357
*964 FILLER_104_364
*965 FILLER_104_371
*966 FILLER_104_378
*967 FILLER_104_385
*968 FILLER_104_392
*969 FILLER_104_399
*970 FILLER_104_406
*971 FILLER_104_413
*972 FILLER_104_42
*973 FILLER_104_420
*974 FILLER_104_427
*975 FILLER_104_434
*976 FILLER_104_441
*977 FILLER_104_448
*978 FILLER_104_455
*979 FILLER_104_462
*980 FILLER_104_469
*981 FILLER_104_476
*982 FILLER_104_483
*983 FILLER_104_49
*984 FILLER_104_490
*985 FILLER_104_497
*986 FILLER_104_504
*987 FILLER_104_511
*988 FILLER_104_518
*989 FILLER_104_525
*990 FILLER_104_532
*991 FILLER_104_539
*992 FILLER_104_546
*993 FILLER_104_553
*994 FILLER_104_56
*995 FILLER_104_560
*996 FILLER_104_567
*997 FILLER_104_574
*998 FILLER_104_581
*999 FILLER_104_588
*1000 FILLER_104_595
*1001 FILLER_104_602
*1002 FILLER_104_609
*1003 FILLER_104_616
*1004 FILLER_104_623
*1005 FILLER_104_63
*1006 FILLER_104_630
*1007 FILLER_104_637
*1008 FILLER_104_644
*1009 FILLER_104_651
*1010 FILLER_104_658
*1011 FILLER_104_665
*1012 FILLER_104_672
*1013 FILLER_104_679
*1014 FILLER_104_686
*1015 FILLER_104_693
*1016 FILLER_104_7
*1017 FILLER_104_70
*1018 FILLER_104_700
*1019 FILLER_104_707
*1020 FILLER_104_714
*1021 FILLER_104_721
*1022 FILLER_104_728
*1023 FILLER_104_735
*1024 FILLER_104_742
*1025 FILLER_104_749
*1026 FILLER_104_756
*1027 FILLER_104_763
*1028 FILLER_104_77
*1029 FILLER_104_770
*1030 FILLER_104_777
*1031 FILLER_104_784
*1032 FILLER_104_791
*1033 FILLER_104_798
*1034 FILLER_104_805
*1035 FILLER_104_812
*1036 FILLER_104_819
*1037 FILLER_104_826
*1038 FILLER_104_833
*1039 FILLER_104_84
*1040 FILLER_104_840
*1041 FILLER_104_847
*1042 FILLER_104_854
*1043 FILLER_104_861
*1044 FILLER_104_868
*1045 FILLER_104_875
*1046 FILLER_104_882
*1047 FILLER_104_889
*1048 FILLER_104_896
*1049 FILLER_104_903
*1050 FILLER_104_91
*1051 FILLER_104_910
*1052 FILLER_104_917
*1053 FILLER_104_924
*1054 FILLER_104_931
*1055 FILLER_104_938
*1056 FILLER_104_945
*1057 FILLER_104_952
*1058 FILLER_104_959
*1059 FILLER_104_966
*1060 FILLER_104_973
*1061 FILLER_104_98
*1062 FILLER_104_980
*1063 FILLER_104_987
*1064 FILLER_104_994
*1065 FILLER_105_0
*1066 FILLER_105_1001
*1067 FILLER_105_1008
*1068 FILLER_105_1015
*1069 FILLER_105_1022
*1070 FILLER_105_1029
*1071 FILLER_105_1036
*1072 FILLER_105_1043
*1073 FILLER_105_105
*1074 FILLER_105_1050
*1075 FILLER_105_1057
*1076 FILLER_105_1064
*1077 FILLER_105_1071
*1078 FILLER_105_1078
*1079 FILLER_105_1085
*1080 FILLER_105_1092
*1081 FILLER_105_1099
*1082 FILLER_105_1106
*1083 FILLER_105_1113
*1084 FILLER_105_112
*1085 FILLER_105_1120
*1086 FILLER_105_1127
*1087 FILLER_105_1134
*1088 FILLER_105_1141
*1089 FILLER_105_1148
*1090 FILLER_105_1155
*1091 FILLER_105_1162
*1092 FILLER_105_1169
*1093 FILLER_105_1173
*1094 FILLER_105_119
*1095 FILLER_105_126
*1096 FILLER_105_133
*1097 FILLER_105_14
*1098 FILLER_105_140
*1099 FILLER_105_147
*1100 FILLER_105_154
*1101 FILLER_105_161
*1102 FILLER_105_168
*1103 FILLER_105_175
*1104 FILLER_105_182
*1105 FILLER_105_189
*1106 FILLER_105_196
*1107 FILLER_105_203
*1108 FILLER_105_21
*1109 FILLER_105_210
*1110 FILLER_105_217
*1111 FILLER_105_224
*1112 FILLER_105_231
*1113 FILLER_105_238
*1114 FILLER_105_245
*1115 FILLER_105_252
*1116 FILLER_105_259
*1117 FILLER_105_266
*1118 FILLER_105_273
*1119 FILLER_105_28
*1120 FILLER_105_280
*1121 FILLER_105_287
*1122 FILLER_105_294
*1123 FILLER_105_301
*1124 FILLER_105_308
*1125 FILLER_105_315
*1126 FILLER_105_322
*1127 FILLER_105_329
*1128 FILLER_105_336
*1129 FILLER_105_343
*1130 FILLER_105_35
*1131 FILLER_105_350
*1132 FILLER_105_357
*1133 FILLER_105_364
*1134 FILLER_105_371
*1135 FILLER_105_378
*1136 FILLER_105_385
*1137 FILLER_105_392
*1138 FILLER_105_399
*1139 FILLER_105_406
*1140 FILLER_105_413
*1141 FILLER_105_42
*1142 FILLER_105_420
*1143 FILLER_105_427
*1144 FILLER_105_434
*1145 FILLER_105_441
*1146 FILLER_105_448
*1147 FILLER_105_455
*1148 FILLER_105_462
*1149 FILLER_105_469
*1150 FILLER_105_476
*1151 FILLER_105_483
*1152 FILLER_105_49
*1153 FILLER_105_490
*1154 FILLER_105_497
*1155 FILLER_105_504
*1156 FILLER_105_511
*1157 FILLER_105_518
*1158 FILLER_105_525
*1159 FILLER_105_532
*1160 FILLER_105_539
*1161 FILLER_105_546
*1162 FILLER_105_553
*1163 FILLER_105_56
*1164 FILLER_105_560
*1165 FILLER_105_567
*1166 FILLER_105_574
*1167 FILLER_105_581
*1168 FILLER_105_588
*1169 FILLER_105_595
*1170 FILLER_105_602
*1171 FILLER_105_609
*1172 FILLER_105_616
*1173 FILLER_105_623
*1174 FILLER_105_63
*1175 FILLER_105_630
*1176 FILLER_105_637
*1177 FILLER_105_644
*1178 FILLER_105_651
*1179 FILLER_105_658
*1180 FILLER_105_665
*1181 FILLER_105_672
*1182 FILLER_105_679
*1183 FILLER_105_686
*1184 FILLER_105_693
*1185 FILLER_105_7
*1186 FILLER_105_70
*1187 FILLER_105_700
*1188 FILLER_105_707
*1189 FILLER_105_714
*1190 FILLER_105_721
*1191 FILLER_105_728
*1192 FILLER_105_735
*1193 FILLER_105_742
*1194 FILLER_105_749
*1195 FILLER_105_756
*1196 FILLER_105_763
*1197 FILLER_105_77
*1198 FILLER_105_770
*1199 FILLER_105_777
*1200 FILLER_105_784
*1201 FILLER_105_791
*1202 FILLER_105_798
*1203 FILLER_105_805
*1204 FILLER_105_812
*1205 FILLER_105_819
*1206 FILLER_105_826
*1207 FILLER_105_833
*1208 FILLER_105_84
*1209 FILLER_105_840
*1210 FILLER_105_847
*1211 FILLER_105_854
*1212 FILLER_105_861
*1213 FILLER_105_868
*1214 FILLER_105_875
*1215 FILLER_105_882
*1216 FILLER_105_889
*1217 FILLER_105_896
*1218 FILLER_105_903
*1219 FILLER_105_91
*1220 FILLER_105_910
*1221 FILLER_105_917
*1222 FILLER_105_924
*1223 FILLER_105_931
*1224 FILLER_105_938
*1225 FILLER_105_945
*1226 FILLER_105_952
*1227 FILLER_105_959
*1228 FILLER_105_966
*1229 FILLER_105_973
*1230 FILLER_105_98
*1231 FILLER_105_980
*1232 FILLER_105_987
*1233 FILLER_105_994
*1234 FILLER_106_0
*1235 FILLER_106_1001
*1236 FILLER_106_1008
*1237 FILLER_106_1015
*1238 FILLER_106_1022
*1239 FILLER_106_1029
*1240 FILLER_106_1036
*1241 FILLER_106_1043
*1242 FILLER_106_105
*1243 FILLER_106_1050
*1244 FILLER_106_1057
*1245 FILLER_106_1064
*1246 FILLER_106_1071
*1247 FILLER_106_1078
*1248 FILLER_106_1085
*1249 FILLER_106_1092
*1250 FILLER_106_1099
*1251 FILLER_106_1106
*1252 FILLER_106_1113
*1253 FILLER_106_112
*1254 FILLER_106_1120
*1255 FILLER_106_1127
*1256 FILLER_106_1134
*1257 FILLER_106_1141
*1258 FILLER_106_1148
*1259 FILLER_106_1155
*1260 FILLER_106_1162
*1261 FILLER_106_1169
*1262 FILLER_106_1173
*1263 FILLER_106_119
*1264 FILLER_106_126
*1265 FILLER_106_133
*1266 FILLER_106_14
*1267 FILLER_106_140
*1268 FILLER_106_147
*1269 FILLER_106_154
*1270 FILLER_106_161
*1271 FILLER_106_168
*1272 FILLER_106_175
*1273 FILLER_106_182
*1274 FILLER_106_189
*1275 FILLER_106_196
*1276 FILLER_106_203
*1277 FILLER_106_21
*1278 FILLER_106_210
*1279 FILLER_106_217
*1280 FILLER_106_224
*1281 FILLER_106_231
*1282 FILLER_106_238
*1283 FILLER_106_245
*1284 FILLER_106_252
*1285 FILLER_106_259
*1286 FILLER_106_266
*1287 FILLER_106_273
*1288 FILLER_106_28
*1289 FILLER_106_280
*1290 FILLER_106_287
*1291 FILLER_106_294
*1292 FILLER_106_301
*1293 FILLER_106_308
*1294 FILLER_106_315
*1295 FILLER_106_322
*1296 FILLER_106_329
*1297 FILLER_106_336
*1298 FILLER_106_343
*1299 FILLER_106_35
*1300 FILLER_106_350
*1301 FILLER_106_357
*1302 FILLER_106_364
*1303 FILLER_106_371
*1304 FILLER_106_378
*1305 FILLER_106_385
*1306 FILLER_106_392
*1307 FILLER_106_399
*1308 FILLER_106_406
*1309 FILLER_106_413
*1310 FILLER_106_42
*1311 FILLER_106_420
*1312 FILLER_106_427
*1313 FILLER_106_434
*1314 FILLER_106_441
*1315 FILLER_106_448
*1316 FILLER_106_455
*1317 FILLER_106_462
*1318 FILLER_106_469
*1319 FILLER_106_476
*1320 FILLER_106_483
*1321 FILLER_106_49
*1322 FILLER_106_490
*1323 FILLER_106_497
*1324 FILLER_106_504
*1325 FILLER_106_511
*1326 FILLER_106_518
*1327 FILLER_106_525
*1328 FILLER_106_532
*1329 FILLER_106_539
*1330 FILLER_106_546
*1331 FILLER_106_553
*1332 FILLER_106_56
*1333 FILLER_106_560
*1334 FILLER_106_567
*1335 FILLER_106_574
*1336 FILLER_106_581
*1337 FILLER_106_588
*1338 FILLER_106_595
*1339 FILLER_106_602
*1340 FILLER_106_609
*1341 FILLER_106_616
*1342 FILLER_106_623
*1343 FILLER_106_63
*1344 FILLER_106_630
*1345 FILLER_106_637
*1346 FILLER_106_644
*1347 FILLER_106_651
*1348 FILLER_106_658
*1349 FILLER_106_665
*1350 FILLER_106_672
*1351 FILLER_106_679
*1352 FILLER_106_686
*1353 FILLER_106_693
*1354 FILLER_106_7
*1355 FILLER_106_70
*1356 FILLER_106_700
*1357 FILLER_106_707
*1358 FILLER_106_714
*1359 FILLER_106_721
*1360 FILLER_106_728
*1361 FILLER_106_735
*1362 FILLER_106_742
*1363 FILLER_106_749
*1364 FILLER_106_756
*1365 FILLER_106_763
*1366 FILLER_106_77
*1367 FILLER_106_770
*1368 FILLER_106_777
*1369 FILLER_106_784
*1370 FILLER_106_791
*1371 FILLER_106_798
*1372 FILLER_106_805
*1373 FILLER_106_812
*1374 FILLER_106_819
*1375 FILLER_106_826
*1376 FILLER_106_833
*1377 FILLER_106_84
*1378 FILLER_106_840
*1379 FILLER_106_847
*1380 FILLER_106_854
*1381 FILLER_106_861
*1382 FILLER_106_868
*1383 FILLER_106_875
*1384 FILLER_106_882
*1385 FILLER_106_889
*1386 FILLER_106_896
*1387 FILLER_106_903
*1388 FILLER_106_91
*1389 FILLER_106_910
*1390 FILLER_106_917
*1391 FILLER_106_924
*1392 FILLER_106_931
*1393 FILLER_106_938
*1394 FILLER_106_945
*1395 FILLER_106_952
*1396 FILLER_106_959
*1397 FILLER_106_966
*1398 FILLER_106_973
*1399 FILLER_106_98
*1400 FILLER_106_980
*1401 FILLER_106_987
*1402 FILLER_106_994
*1403 FILLER_107_0
*1404 FILLER_107_1001
*1405 FILLER_107_1008
*1406 FILLER_107_1015
*1407 FILLER_107_1022
*1408 FILLER_107_1029
*1409 FILLER_107_1036
*1410 FILLER_107_1043
*1411 FILLER_107_105
*1412 FILLER_107_1050
*1413 FILLER_107_1057
*1414 FILLER_107_1064
*1415 FILLER_107_1071
*1416 FILLER_107_1078
*1417 FILLER_107_1085
*1418 FILLER_107_1092
*1419 FILLER_107_1099
*1420 FILLER_107_1106
*1421 FILLER_107_1113
*1422 FILLER_107_112
*1423 FILLER_107_1120
*1424 FILLER_107_1127
*1425 FILLER_107_1134
*1426 FILLER_107_1141
*1427 FILLER_107_1148
*1428 FILLER_107_1155
*1429 FILLER_107_1162
*1430 FILLER_107_1169
*1431 FILLER_107_1173
*1432 FILLER_107_119
*1433 FILLER_107_126
*1434 FILLER_107_133
*1435 FILLER_107_14
*1436 FILLER_107_140
*1437 FILLER_107_147
*1438 FILLER_107_154
*1439 FILLER_107_161
*1440 FILLER_107_168
*1441 FILLER_107_175
*1442 FILLER_107_182
*1443 FILLER_107_189
*1444 FILLER_107_196
*1445 FILLER_107_203
*1446 FILLER_107_21
*1447 FILLER_107_210
*1448 FILLER_107_217
*1449 FILLER_107_224
*1450 FILLER_107_231
*1451 FILLER_107_238
*1452 FILLER_107_245
*1453 FILLER_107_252
*1454 FILLER_107_259
*1455 FILLER_107_266
*1456 FILLER_107_273
*1457 FILLER_107_28
*1458 FILLER_107_280
*1459 FILLER_107_287
*1460 FILLER_107_294
*1461 FILLER_107_301
*1462 FILLER_107_308
*1463 FILLER_107_315
*1464 FILLER_107_322
*1465 FILLER_107_329
*1466 FILLER_107_336
*1467 FILLER_107_343
*1468 FILLER_107_35
*1469 FILLER_107_350
*1470 FILLER_107_357
*1471 FILLER_107_364
*1472 FILLER_107_371
*1473 FILLER_107_378
*1474 FILLER_107_385
*1475 FILLER_107_392
*1476 FILLER_107_399
*1477 FILLER_107_406
*1478 FILLER_107_413
*1479 FILLER_107_42
*1480 FILLER_107_420
*1481 FILLER_107_427
*1482 FILLER_107_434
*1483 FILLER_107_441
*1484 FILLER_107_448
*1485 FILLER_107_455
*1486 FILLER_107_462
*1487 FILLER_107_469