*SPEF "ieee 1481-1999"
*DESIGN "top"
*DATE "14:35:21 Tuesday September 09, 2025"
*VENDOR "The OpenROAD Project"
*PROGRAM "OpenROAD"
*VERSION "341650e72dad0dc8571822ff8c5d9c5e365327f7"
*DESIGN_FLOW "NAME_SCOPE LOCAL" "PIN_CAP NONE"
*DIVIDER /
*DELIMITER :
*BUS_DELIMITER []
*T_UNIT 1 NS
*C_UNIT 1 PF
*R_UNIT 1 OHM
*L_UNIT 1 HENRY

*NAME_MAP
*7 ui_PAD[0]
*8 ui_PAD[10]
*9 ui_PAD[11]
*10 ui_PAD[1]
*11 ui_PAD[2]
*12 ui_PAD[3]
*13 ui_PAD[4]
*14 ui_PAD[5]
*15 ui_PAD[6]
*16 ui_PAD[7]
*17 ui_PAD[8]
*18 ui_PAD[9]
*19 uo_PAD[0]
*20 uo_PAD[10]
*21 uo_PAD[11]
*22 uo_PAD[1]
*23 uo_PAD[2]
*24 uo_PAD[3]
*25 uo_PAD[4]
*26 uo_PAD[5]
*27 uo_PAD[6]
*28 uo_PAD[7]
*29 uo_PAD[8]
*30 uo_PAD[9]
*33 ui_PAD2CORE\[0\]
*34 ui_PAD2CORE\[10\]
*35 ui_PAD2CORE\[11\]
*36 ui_PAD2CORE\[1\]
*37 ui_PAD2CORE\[2\]
*38 ui_PAD2CORE\[3\]
*39 ui_PAD2CORE\[4\]
*40 ui_PAD2CORE\[5\]
*41 ui_PAD2CORE\[6\]
*42 ui_PAD2CORE\[7\]
*43 ui_PAD2CORE\[8\]
*44 ui_PAD2CORE\[9\]
*45 FILLER_0_0
*46 FILLER_0_1001
*47 FILLER_0_105
*48 FILLER_0_112
*49 FILLER_0_119
*50 FILLER_0_126
*51 FILLER_0_133
*52 FILLER_0_14
*53 FILLER_0_140
*54 FILLER_0_147
*55 FILLER_0_154
*56 FILLER_0_161
*57 FILLER_0_168
*58 FILLER_0_175
*59 FILLER_0_182
*60 FILLER_0_189
*61 FILLER_0_196
*62 FILLER_0_203
*63 FILLER_0_21
*64 FILLER_0_210
*65 FILLER_0_217
*66 FILLER_0_224
*67 FILLER_0_231
*68 FILLER_0_238
*69 FILLER_0_245
*70 FILLER_0_252
*71 FILLER_0_259
*72 FILLER_0_266
*73 FILLER_0_273
*74 FILLER_0_28
*75 FILLER_0_280
*76 FILLER_0_287
*77 FILLER_0_294
*78 FILLER_0_301
*79 FILLER_0_308
*80 FILLER_0_315
*81 FILLER_0_322
*82 FILLER_0_329
*83 FILLER_0_336
*84 FILLER_0_343
*85 FILLER_0_35
*86 FILLER_0_350
*87 FILLER_0_357
*88 FILLER_0_364
*89 FILLER_0_371
*90 FILLER_0_378
*91 FILLER_0_385
*92 FILLER_0_392
*93 FILLER_0_399
*94 FILLER_0_406
*95 FILLER_0_413
*96 FILLER_0_42
*97 FILLER_0_420
*98 FILLER_0_427
*99 FILLER_0_434
*100 FILLER_0_441
*101 FILLER_0_448
*102 FILLER_0_455
*103 FILLER_0_462
*104 FILLER_0_469
*105 FILLER_0_476
*106 FILLER_0_483
*107 FILLER_0_49
*108 FILLER_0_490
*109 FILLER_0_497
*110 FILLER_0_504
*111 FILLER_0_511
*112 FILLER_0_518
*113 FILLER_0_525
*114 FILLER_0_532
*115 FILLER_0_539
*116 FILLER_0_546
*117 FILLER_0_553
*118 FILLER_0_56
*119 FILLER_0_560
*120 FILLER_0_567
*121 FILLER_0_574
*122 FILLER_0_581
*123 FILLER_0_588
*124 FILLER_0_595
*125 FILLER_0_602
*126 FILLER_0_609
*127 FILLER_0_616
*128 FILLER_0_623
*129 FILLER_0_63
*130 FILLER_0_630
*131 FILLER_0_637
*132 FILLER_0_644
*133 FILLER_0_651
*134 FILLER_0_658
*135 FILLER_0_665
*136 FILLER_0_672
*137 FILLER_0_679
*138 FILLER_0_686
*139 FILLER_0_693
*140 FILLER_0_7
*141 FILLER_0_70
*142 FILLER_0_700
*143 FILLER_0_707
*144 FILLER_0_714
*145 FILLER_0_721
*146 FILLER_0_728
*147 FILLER_0_735
*148 FILLER_0_742
*149 FILLER_0_749
*150 FILLER_0_756
*151 FILLER_0_763
*152 FILLER_0_77
*153 FILLER_0_770
*154 FILLER_0_777
*155 FILLER_0_784
*156 FILLER_0_791
*157 FILLER_0_798
*158 FILLER_0_805
*159 FILLER_0_812
*160 FILLER_0_819
*161 FILLER_0_826
*162 FILLER_0_833
*163 FILLER_0_84
*164 FILLER_0_840
*165 FILLER_0_847
*166 FILLER_0_854
*167 FILLER_0_861
*168 FILLER_0_868
*169 FILLER_0_875
*170 FILLER_0_882
*171 FILLER_0_889
*172 FILLER_0_896
*173 FILLER_0_903
*174 FILLER_0_91
*175 FILLER_0_910
*176 FILLER_0_917
*177 FILLER_0_924
*178 FILLER_0_931
*179 FILLER_0_938
*180 FILLER_0_945
*181 FILLER_0_952
*182 FILLER_0_959
*183 FILLER_0_966
*184 FILLER_0_973
*185 FILLER_0_98
*186 FILLER_0_980
*187 FILLER_0_987
*188 FILLER_0_994
*189 FILLER_100_0
*190 FILLER_100_1001
*191 FILLER_100_105
*192 FILLER_100_112
*193 FILLER_100_119
*194 FILLER_100_126
*195 FILLER_100_133
*196 FILLER_100_14
*197 FILLER_100_140
*198 FILLER_100_147
*199 FILLER_100_154
*200 FILLER_100_161
*201 FILLER_100_168
*202 FILLER_100_175
*203 FILLER_100_182
*204 FILLER_100_189
*205 FILLER_100_196
*206 FILLER_100_203
*207 FILLER_100_21
*208 FILLER_100_210
*209 FILLER_100_217
*210 FILLER_100_224
*211 FILLER_100_231
*212 FILLER_100_238
*213 FILLER_100_245
*214 FILLER_100_252
*215 FILLER_100_259
*216 FILLER_100_266
*217 FILLER_100_273
*218 FILLER_100_28
*219 FILLER_100_280
*220 FILLER_100_287
*221 FILLER_100_294
*222 FILLER_100_301
*223 FILLER_100_308
*224 FILLER_100_315
*225 FILLER_100_322
*226 FILLER_100_329
*227 FILLER_100_336
*228 FILLER_100_343
*229 FILLER_100_35
*230 FILLER_100_350
*231 FILLER_100_357
*232 FILLER_100_364
*233 FILLER_100_371
*234 FILLER_100_378
*235 FILLER_100_385
*236 FILLER_100_392
*237 FILLER_100_399
*238 FILLER_100_406
*239 FILLER_100_413
*240 FILLER_100_42
*241 FILLER_100_420
*242 FILLER_100_427
*243 FILLER_100_434
*244 FILLER_100_441
*245 FILLER_100_448
*246 FILLER_100_455
*247 FILLER_100_462
*248 FILLER_100_469
*249 FILLER_100_476
*250 FILLER_100_483
*251 FILLER_100_49
*252 FILLER_100_490
*253 FILLER_100_497
*254 FILLER_100_504
*255 FILLER_100_511
*256 FILLER_100_518
*257 FILLER_100_525
*258 FILLER_100_532
*259 FILLER_100_539
*260 FILLER_100_546
*261 FILLER_100_553
*262 FILLER_100_56
*263 FILLER_100_560
*264 FILLER_100_567
*265 FILLER_100_574
*266 FILLER_100_581
*267 FILLER_100_588
*268 FILLER_100_595
*269 FILLER_100_602
*270 FILLER_100_609
*271 FILLER_100_616
*272 FILLER_100_623
*273 FILLER_100_63
*274 FILLER_100_630
*275 FILLER_100_637
*276 FILLER_100_644
*277 FILLER_100_651
*278 FILLER_100_658
*279 FILLER_100_665
*280 FILLER_100_672
*281 FILLER_100_679
*282 FILLER_100_686
*283 FILLER_100_693
*284 FILLER_100_7
*285 FILLER_100_70
*286 FILLER_100_700
*287 FILLER_100_707
*288 FILLER_100_714
*289 FILLER_100_721
*290 FILLER_100_728
*291 FILLER_100_735
*292 FILLER_100_742
*293 FILLER_100_749
*294 FILLER_100_756
*295 FILLER_100_763
*296 FILLER_100_77
*297 FILLER_100_770
*298 FILLER_100_777
*299 FILLER_100_784
*300 FILLER_100_791
*301 FILLER_100_798
*302 FILLER_100_805
*303 FILLER_100_812
*304 FILLER_100_819
*305 FILLER_100_826
*306 FILLER_100_833
*307 FILLER_100_84
*308 FILLER_100_840
*309 FILLER_100_847
*310 FILLER_100_854
*311 FILLER_100_861
*312 FILLER_100_868
*313 FILLER_100_875
*314 FILLER_100_882
*315 FILLER_100_889
*316 FILLER_100_896
*317 FILLER_100_903
*318 FILLER_100_91
*319 FILLER_100_910
*320 FILLER_100_917
*321 FILLER_100_924
*322 FILLER_100_931
*323 FILLER_100_938
*324 FILLER_100_945
*325 FILLER_100_952
*326 FILLER_100_959
*327 FILLER_100_966
*328 FILLER_100_973
*329 FILLER_100_98
*330 FILLER_100_980
*331 FILLER_100_987
*332 FILLER_100_994
*333 FILLER_101_0
*334 FILLER_101_1001
*335 FILLER_101_105
*336 FILLER_101_112
*337 FILLER_101_119
*338 FILLER_101_126
*339 FILLER_101_133
*340 FILLER_101_14
*341 FILLER_101_140
*342 FILLER_101_147
*343 FILLER_101_154
*344 FILLER_101_161
*345 FILLER_101_168
*346 FILLER_101_175
*347 FILLER_101_182
*348 FILLER_101_189
*349 FILLER_101_196
*350 FILLER_101_203
*351 FILLER_101_21
*352 FILLER_101_210
*353 FILLER_101_217
*354 FILLER_101_224
*355 FILLER_101_231
*356 FILLER_101_238
*357 FILLER_101_245
*358 FILLER_101_252
*359 FILLER_101_259
*360 FILLER_101_266
*361 FILLER_101_273
*362 FILLER_101_28
*363 FILLER_101_280
*364 FILLER_101_287
*365 FILLER_101_294
*366 FILLER_101_301
*367 FILLER_101_308
*368 FILLER_101_315
*369 FILLER_101_322
*370 FILLER_101_329
*371 FILLER_101_336
*372 FILLER_101_343
*373 FILLER_101_35
*374 FILLER_101_350
*375 FILLER_101_357
*376 FILLER_101_364
*377 FILLER_101_371
*378 FILLER_101_378
*379 FILLER_101_385
*380 FILLER_101_392
*381 FILLER_101_399
*382 FILLER_101_406
*383 FILLER_101_413
*384 FILLER_101_42
*385 FILLER_101_420
*386 FILLER_101_427
*387 FILLER_101_434
*388 FILLER_101_441
*389 FILLER_101_448
*390 FILLER_101_455
*391 FILLER_101_462
*392 FILLER_101_469
*393 FILLER_101_476
*394 FILLER_101_483
*395 FILLER_101_49
*396 FILLER_101_490
*397 FILLER_101_497
*398 FILLER_101_504
*399 FILLER_101_511
*400 FILLER_101_518
*401 FILLER_101_525
*402 FILLER_101_532
*403 FILLER_101_539
*404 FILLER_101_546
*405 FILLER_101_553
*406 FILLER_101_56
*407 FILLER_101_560
*408 FILLER_101_567
*409 FILLER_101_574
*410 FILLER_101_581
*411 FILLER_101_588
*412 FILLER_101_595
*413 FILLER_101_602
*414 FILLER_101_609
*415 FILLER_101_616
*416 FILLER_101_623
*417 FILLER_101_63
*418 FILLER_101_630
*419 FILLER_101_637
*420 FILLER_101_644
*421 FILLER_101_651
*422 FILLER_101_658
*423 FILLER_101_665
*424 FILLER_101_672
*425 FILLER_101_679
*426 FILLER_101_686
*427 FILLER_101_693
*428 FILLER_101_7
*429 FILLER_101_70
*430 FILLER_101_700
*431 FILLER_101_707
*432 FILLER_101_714
*433 FILLER_101_721
*434 FILLER_101_728
*435 FILLER_101_735
*436 FILLER_101_742
*437 FILLER_101_749
*438 FILLER_101_756
*439 FILLER_101_763
*440 FILLER_101_77
*441 FILLER_101_770
*442 FILLER_101_777
*443 FILLER_101_784
*444 FILLER_101_791
*445 FILLER_101_798
*446 FILLER_101_805
*447 FILLER_101_812
*448 FILLER_101_819
*449 FILLER_101_826
*450 FILLER_101_833
*451 FILLER_101_84
*452 FILLER_101_840
*453 FILLER_101_847
*454 FILLER_101_854
*455 FILLER_101_861
*456 FILLER_101_868
*457 FILLER_101_875
*458 FILLER_101_882
*459 FILLER_101_889
*460 FILLER_101_896
*461 FILLER_101_903
*462 FILLER_101_91
*463 FILLER_101_910
*464 FILLER_101_917
*465 FILLER_101_924
*466 FILLER_101_931
*467 FILLER_101_938
*468 FILLER_101_945
*469 FILLER_101_952
*470 FILLER_101_959
*471 FILLER_101_966
*472 FILLER_101_973
*473 FILLER_101_98
*474 FILLER_101_980
*475 FILLER_101_987
*476 FILLER_101_994
*477 FILLER_102_0
*478 FILLER_102_1001
*479 FILLER_102_105
*480 FILLER_102_112
*481 FILLER_102_119
*482 FILLER_102_126
*483 FILLER_102_133
*484 FILLER_102_14
*485 FILLER_102_140
*486 FILLER_102_147
*487 FILLER_102_154
*488 FILLER_102_161
*489 FILLER_102_168
*490 FILLER_102_175
*491 FILLER_102_182
*492 FILLER_102_189
*493 FILLER_102_196
*494 FILLER_102_203
*495 FILLER_102_21
*496 FILLER_102_210
*497 FILLER_102_217
*498 FILLER_102_224
*499 FILLER_102_231
*500 FILLER_102_238
*501 FILLER_102_245
*502 FILLER_102_252
*503 FILLER_102_259
*504 FILLER_102_266
*505 FILLER_102_273
*506 FILLER_102_28
*507 FILLER_102_280
*508 FILLER_102_287
*509 FILLER_102_294
*510 FILLER_102_301
*511 FILLER_102_308
*512 FILLER_102_315
*513 FILLER_102_322
*514 FILLER_102_329
*515 FILLER_102_336
*516 FILLER_102_343
*517 FILLER_102_35
*518 FILLER_102_350
*519 FILLER_102_357
*520 FILLER_102_364
*521 FILLER_102_371
*522 FILLER_102_378
*523 FILLER_102_385
*524 FILLER_102_392
*525 FILLER_102_399
*526 FILLER_102_406
*527 FILLER_102_413
*528 FILLER_102_42
*529 FILLER_102_420
*530 FILLER_102_427
*531 FILLER_102_434
*532 FILLER_102_441
*533 FILLER_102_448
*534 FILLER_102_455
*535 FILLER_102_462
*536 FILLER_102_469
*537 FILLER_102_476
*538 FILLER_102_483
*539 FILLER_102_49
*540 FILLER_102_490
*541 FILLER_102_497
*542 FILLER_102_504
*543 FILLER_102_511
*544 FILLER_102_518
*545 FILLER_102_525
*546 FILLER_102_532
*547 FILLER_102_539
*548 FILLER_102_546
*549 FILLER_102_553
*550 FILLER_102_56
*551 FILLER_102_560
*552 FILLER_102_567
*553 FILLER_102_574
*554 FILLER_102_581
*555 FILLER_102_588
*556 FILLER_102_595
*557 FILLER_102_602
*558 FILLER_102_609
*559 FILLER_102_616
*560 FILLER_102_623
*561 FILLER_102_63
*562 FILLER_102_630
*563 FILLER_102_637
*564 FILLER_102_644
*565 FILLER_102_651
*566 FILLER_102_658
*567 FILLER_102_665
*568 FILLER_102_672
*569 FILLER_102_679
*570 FILLER_102_686
*571 FILLER_102_693
*572 FILLER_102_7
*573 FILLER_102_70
*574 FILLER_102_700
*575 FILLER_102_707
*576 FILLER_102_714
*577 FILLER_102_721
*578 FILLER_102_728
*579 FILLER_102_735
*580 FILLER_102_742
*581 FILLER_102_749
*582 FILLER_102_756
*583 FILLER_102_763
*584 FILLER_102_77
*585 FILLER_102_770
*586 FILLER_102_777
*587 FILLER_102_784
*588 FILLER_102_791
*589 FILLER_102_798
*590 FILLER_102_805
*591 FILLER_102_812
*592 FILLER_102_819
*593 FILLER_102_826
*594 FILLER_102_833
*595 FILLER_102_84
*596 FILLER_102_840
*597 FILLER_102_847
*598 FILLER_102_854
*599 FILLER_102_861
*600 FILLER_102_868
*601 FILLER_102_875
*602 FILLER_102_882
*603 FILLER_102_889
*604 FILLER_102_896
*605 FILLER_102_903
*606 FILLER_102_91
*607 FILLER_102_910
*608 FILLER_102_917
*609 FILLER_102_924
*610 FILLER_102_931
*611 FILLER_102_938
*612 FILLER_102_945
*613 FILLER_102_952
*614 FILLER_102_959
*615 FILLER_102_966
*616 FILLER_102_973
*617 FILLER_102_98
*618 FILLER_102_980
*619 FILLER_102_987
*620 FILLER_102_994
*621 FILLER_103_0
*622 FILLER_103_1001
*623 FILLER_103_105
*624 FILLER_103_112
*625 FILLER_103_119
*626 FILLER_103_126
*627 FILLER_103_133
*628 FILLER_103_14
*629 FILLER_103_140
*630 FILLER_103_147
*631 FILLER_103_154
*632 FILLER_103_161
*633 FILLER_103_168
*634 FILLER_103_175
*635 FILLER_103_182
*636 FILLER_103_189
*637 FILLER_103_196
*638 FILLER_103_203
*639 FILLER_103_21
*640 FILLER_103_210
*641 FILLER_103_217
*642 FILLER_103_224
*643 FILLER_103_231
*644 FILLER_103_238
*645 FILLER_103_245
*646 FILLER_103_252
*647 FILLER_103_259
*648 FILLER_103_266
*649 FILLER_103_273
*650 FILLER_103_28
*651 FILLER_103_280
*652 FILLER_103_287
*653 FILLER_103_294
*654 FILLER_103_301
*655 FILLER_103_308
*656 FILLER_103_315
*657 FILLER_103_322
*658 FILLER_103_329
*659 FILLER_103_336
*660 FILLER_103_343
*661 FILLER_103_35
*662 FILLER_103_350
*663 FILLER_103_357
*664 FILLER_103_364
*665 FILLER_103_371
*666 FILLER_103_378
*667 FILLER_103_385
*668 FILLER_103_392
*669 FILLER_103_399
*670 FILLER_103_406
*671 FILLER_103_413
*672 FILLER_103_42
*673 FILLER_103_420
*674 FILLER_103_427
*675 FILLER_103_434
*676 FILLER_103_441
*677 FILLER_103_448
*678 FILLER_103_455
*679 FILLER_103_462
*680 FILLER_103_469
*681 FILLER_103_476
*682 FILLER_103_483
*683 FILLER_103_49
*684 FILLER_103_490
*685 FILLER_103_497
*686 FILLER_103_504
*687 FILLER_103_511
*688 FILLER_103_518
*689 FILLER_103_525
*690 FILLER_103_532
*691 FILLER_103_539
*692 FILLER_103_546
*693 FILLER_103_553
*694 FILLER_103_56
*695 FILLER_103_560
*696 FILLER_103_567
*697 FILLER_103_574
*698 FILLER_103_581
*699 FILLER_103_588
*700 FILLER_103_595
*701 FILLER_103_602
*702 FILLER_103_609
*703 FILLER_103_616
*704 FILLER_103_623
*705 FILLER_103_63
*706 FILLER_103_630
*707 FILLER_103_637
*708 FILLER_103_644
*709 FILLER_103_651
*710 FILLER_103_658
*711 FILLER_103_665
*712 FILLER_103_672
*713 FILLER_103_679
*714 FILLER_103_686
*715 FILLER_103_693
*716 FILLER_103_7
*717 FILLER_103_70
*718 FILLER_103_700
*719 FILLER_103_707
*720 FILLER_103_714
*721 FILLER_103_721
*722 FILLER_103_728
*723 FILLER_103_735
*724 FILLER_103_742
*725 FILLER_103_749
*726 FILLER_103_756
*727 FILLER_103_763
*728 FILLER_103_77
*729 FILLER_103_770
*730 FILLER_103_777
*731 FILLER_103_784
*732 FILLER_103_791
*733 FILLER_103_798
*734 FILLER_103_805
*735 FILLER_103_812
*736 FILLER_103_819
*737 FILLER_103_826
*738 FILLER_103_833
*739 FILLER_103_84
*740 FILLER_103_840
*741 FILLER_103_847
*742 FILLER_103_854
*743 FILLER_103_861
*744 FILLER_103_868
*745 FILLER_103_875
*746 FILLER_103_882
*747 FILLER_103_889
*748 FILLER_103_896
*749 FILLER_103_903
*750 FILLER_103_91
*751 FILLER_103_910
*752 FILLER_103_917
*753 FILLER_103_924
*754 FILLER_103_931
*755 FILLER_103_938
*756 FILLER_103_945
*757 FILLER_103_952
*758 FILLER_103_959
*759 FILLER_103_966
*760 FILLER_103_973
*761 FILLER_103_98
*762 FILLER_103_980
*763 FILLER_103_987
*764 FILLER_103_994
*765 FILLER_104_0
*766 FILLER_104_1001
*767 FILLER_104_105
*768 FILLER_104_112
*769 FILLER_104_119
*770 FILLER_104_126
*771 FILLER_104_133
*772 FILLER_104_14
*773 FILLER_104_140
*774 FILLER_104_147
*775 FILLER_104_154
*776 FILLER_104_161
*777 FILLER_104_168
*778 FILLER_104_175
*779 FILLER_104_182
*780 FILLER_104_189
*781 FILLER_104_196
*782 FILLER_104_203
*783 FILLER_104_21
*784 FILLER_104_210
*785 FILLER_104_217
*786 FILLER_104_224
*787 FILLER_104_231
*788 FILLER_104_238
*789 FILLER_104_245
*790 FILLER_104_252
*791 FILLER_104_259
*792 FILLER_104_266
*793 FILLER_104_273
*794 FILLER_104_28
*795 FILLER_104_280
*796 FILLER_104_287
*797 FILLER_104_294
*798 FILLER_104_301
*799 FILLER_104_308
*800 FILLER_104_315
*801 FILLER_104_322
*802 FILLER_104_329
*803 FILLER_104_336
*804 FILLER_104_343
*805 FILLER_104_35
*806 FILLER_104_350
*807 FILLER_104_357
*808 FILLER_104_364
*809 FILLER_104_371
*810 FILLER_104_378
*811 FILLER_104_385
*812 FILLER_104_392
*813 FILLER_104_399
*814 FILLER_104_406
*815 FILLER_104_413
*816 FILLER_104_42
*817 FILLER_104_420
*818 FILLER_104_427
*819 FILLER_104_434
*820 FILLER_104_441
*821 FILLER_104_448
*822 FILLER_104_455
*823 FILLER_104_462
*824 FILLER_104_469
*825 FILLER_104_476
*826 FILLER_104_483
*827 FILLER_104_49
*828 FILLER_104_490
*829 FILLER_104_497
*830 FILLER_104_504
*831 FILLER_104_511
*832 FILLER_104_518
*833 FILLER_104_525
*834 FILLER_104_532
*835 FILLER_104_539
*836 FILLER_104_546
*837 FILLER_104_553
*838 FILLER_104_56
*839 FILLER_104_560
*840 FILLER_104_567
*841 FILLER_104_574
*842 FILLER_104_581
*843 FILLER_104_588
*844 FILLER_104_595
*845 FILLER_104_602
*846 FILLER_104_609
*847 FILLER_104_616
*848 FILLER_104_623
*849 FILLER_104_63
*850 FILLER_104_630
*851 FILLER_104_637
*852 FILLER_104_644
*853 FILLER_104_651
*854 FILLER_104_658
*855 FILLER_104_665
*856 FILLER_104_672
*857 FILLER_104_679
*858 FILLER_104_686
*859 FILLER_104_693
*860 FILLER_104_7
*861 FILLER_104_70
*862 FILLER_104_700
*863 FILLER_104_707
*864 FILLER_104_714
*865 FILLER_104_721
*866 FILLER_104_728
*867 FILLER_104_735
*868 FILLER_104_742
*869 FILLER_104_749
*870 FILLER_104_756
*871 FILLER_104_763
*872 FILLER_104_77
*873 FILLER_104_770
*874 FILLER_104_777
*875 FILLER_104_784
*876 FILLER_104_791
*877 FILLER_104_798
*878 FILLER_104_805
*879 FILLER_104_812
*880 FILLER_104_819
*881 FILLER_104_826
*882 FILLER_104_833
*883 FILLER_104_84
*884 FILLER_104_840
*885 FILLER_104_847
*886 FILLER_104_854
*887 FILLER_104_861
*888 FILLER_104_868
*889 FILLER_104_875
*890 FILLER_104_882
*891 FILLER_104_889
*892 FILLER_104_896
*893 FILLER_104_903
*894 FILLER_104_91
*895 FILLER_104_910
*896 FILLER_104_917
*897 FILLER_104_924
*898 FILLER_104_931
*899 FILLER_104_938
*900 FILLER_104_945
*901 FILLER_104_952
*902 FILLER_104_959
*903 FILLER_104_966
*904 FILLER_104_973
*905 FILLER_104_98
*906 FILLER_104_980
*907 FILLER_104_987
*908 FILLER_104_994
*909 FILLER_105_0
*910 FILLER_105_1001
*911 FILLER_105_105
*912 FILLER_105_112
*913 FILLER_105_119
*914 FILLER_105_126
*915 FILLER_105_133
*916 FILLER_105_14
*917 FILLER_105_140
*918 FILLER_105_147
*919 FILLER_105_154
*920 FILLER_105_161
*921 FILLER_105_168
*922 FILLER_105_175
*923 FILLER_105_182
*924 FILLER_105_189
*925 FILLER_105_196
*926 FILLER_105_203
*927 FILLER_105_21
*928 FILLER_105_210
*929 FILLER_105_217
*930 FILLER_105_224
*931 FILLER_105_231
*932 FILLER_105_238
*933 FILLER_105_245
*934 FILLER_105_252
*935 FILLER_105_259
*936 FILLER_105_266
*937 FILLER_105_273
*938 FILLER_105_28
*939 FILLER_105_280
*940 FILLER_105_287
*941 FILLER_105_294
*942 FILLER_105_301
*943 FILLER_105_308
*944 FILLER_105_315
*945 FILLER_105_322
*946 FILLER_105_329
*947 FILLER_105_336
*948 FILLER_105_343
*949 FILLER_105_35
*950 FILLER_105_350
*951 FILLER_105_357
*952 FILLER_105_364
*953 FILLER_105_371
*954 FILLER_105_378
*955 FILLER_105_385
*956 FILLER_105_392
*957 FILLER_105_399
*958 FILLER_105_406
*959 FILLER_105_413
*960 FILLER_105_42
*961 FILLER_105_420
*962 FILLER_105_427
*963 FILLER_105_434
*964 FILLER_105_441
*965 FILLER_105_448
*966 FILLER_105_455
*967 FILLER_105_462
*968 FILLER_105_469
*969 FILLER_105_476
*970 FILLER_105_483
*971 FILLER_105_49
*972 FILLER_105_490
*973 FILLER_105_497
*974 FILLER_105_504
*975 FILLER_105_511
*976 FILLER_105_518
*977 FILLER_105_525
*978 FILLER_105_532
*979 FILLER_105_539
*980 FILLER_105_546
*981 FILLER_105_553
*982 FILLER_105_56
*983 FILLER_105_560
*984 FILLER_105_567
*985 FILLER_105_574
*986 FILLER_105_581
*987 FILLER_105_588
*988 FILLER_105_595
*989 FILLER_105_602
*990 FILLER_105_609
*991 FILLER_105_616
*992 FILLER_105_623
*993 FILLER_105_63
*994 FILLER_105_630
*995 FILLER_105_637
*996 FILLER_105_644
*997 FILLER_105_651
*998 FILLER_105_658
*999 FILLER_105_665
*1000 FILLER_105_672
*1001 FILLER_105_679
*1002 FILLER_105_686
*1003 FILLER_105_693
*1004 FILLER_105_7
*1005 FILLER_105_70
*1006 FILLER_105_700
*1007 FILLER_105_707
*1008 FILLER_105_714
*1009 FILLER_105_721
*1010 FILLER_105_728
*1011 FILLER_105_735
*1012 FILLER_105_742
*1013 FILLER_105_749
*1014 FILLER_105_756
*1015 FILLER_105_763
*1016 FILLER_105_77
*1017 FILLER_105_770
*1018 FILLER_105_777
*1019 FILLER_105_784
*1020 FILLER_105_791
*1021 FILLER_105_798
*1022 FILLER_105_805
*1023 FILLER_105_812
*1024 FILLER_105_819
*1025 FILLER_105_826
*1026 FILLER_105_833
*1027 FILLER_105_84
*1028 FILLER_105_840
*1029 FILLER_105_847
*1030 FILLER_105_854
*1031 FILLER_105_861
*1032 FILLER_105_868
*1033 FILLER_105_875
*1034 FILLER_105_882
*1035 FILLER_105_889
*1036 FILLER_105_896
*1037 FILLER_105_903
*1038 FILLER_105_91
*1039 FILLER_105_910
*1040 FILLER_105_917
*1041 FILLER_105_924
*1042 FILLER_105_931
*1043 FILLER_105_938
*1044 FILLER_105_945
*1045 FILLER_105_952
*1046 FILLER_105_959
*1047 FILLER_105_966
*1048 FILLER_105_973
*1049 FILLER_105_98
*1050 FILLER_105_980
*1051 FILLER_105_987
*1052 FILLER_105_994
*1053 FILLER_106_0
*1054 FILLER_106_1001
*1055 FILLER_106_105
*1056 FILLER_106_112
*1057 FILLER_106_119
*1058 FILLER_106_126
*1059 FILLER_106_133
*1060 FILLER_106_14
*1061 FILLER_106_140
*1062 FILLER_106_147
*1063 FILLER_106_154
*1064 FILLER_106_161
*1065 FILLER_106_168
*1066 FILLER_106_175
*1067 FILLER_106_182
*1068 FILLER_106_189
*1069 FILLER_106_196
*1070 FILLER_106_203
*1071 FILLER_106_21
*1072 FILLER_106_210
*1073 FILLER_106_217
*1074 FILLER_106_224
*1075 FILLER_106_231
*1076 FILLER_106_238
*1077 FILLER_106_245
*1078 FILLER_106_252
*1079 FILLER_106_259
*1080 FILLER_106_266
*1081 FILLER_106_273
*1082 FILLER_106_28
*1083 FILLER_106_280
*1084 FILLER_106_287
*1085 FILLER_106_294
*1086 FILLER_106_301
*1087 FILLER_106_308
*1088 FILLER_106_315
*1089 FILLER_106_322
*1090 FILLER_106_329
*1091 FILLER_106_336
*1092 FILLER_106_343
*1093 FILLER_106_35
*1094 FILLER_106_350
*1095 FILLER_106_357
*1096 FILLER_106_364
*1097 FILLER_106_371
*1098 FILLER_106_378
*1099 FILLER_106_385
*1100 FILLER_106_392
*1101 FILLER_106_399
*1102 FILLER_106_406
*1103 FILLER_106_413
*1104 FILLER_106_42
*1105 FILLER_106_420
*1106 FILLER_106_427
*1107 FILLER_106_434
*1108 FILLER_106_441
*1109 FILLER_106_448
*1110 FILLER_106_455
*1111 FILLER_106_462
*1112 FILLER_106_469
*1113 FILLER_106_476
*1114 FILLER_106_483
*1115 FILLER_106_49
*1116 FILLER_106_490
*1117 FILLER_106_497
*1118 FILLER_106_504
*1119 FILLER_106_511
*1120 FILLER_106_518
*1121 FILLER_106_525
*1122 FILLER_106_532
*1123 FILLER_106_539
*1124 FILLER_106_546
*1125 FILLER_106_553
*1126 FILLER_106_56
*1127 FILLER_106_560
*1128 FILLER_106_567
*1129 FILLER_106_574
*1130 FILLER_106_581
*1131 FILLER_106_588
*1132 FILLER_106_595
*1133 FILLER_106_602
*1134 FILLER_106_609
*1135 FILLER_106_616
*1136 FILLER_106_623
*1137 FILLER_106_63
*1138 FILLER_106_630
*1139 FILLER_106_637
*1140 FILLER_106_644
*1141 FILLER_106_651
*1142 FILLER_106_658
*1143 FILLER_106_665
*1144 FILLER_106_672
*1145 FILLER_106_679
*1146 FILLER_106_686
*1147 FILLER_106_693
*1148 FILLER_106_7
*1149 FILLER_106_70
*1150 FILLER_106_700
*1151 FILLER_106_707
*1152 FILLER_106_714
*1153 FILLER_106_721
*1154 FILLER_106_728
*1155 FILLER_106_735
*1156 FILLER_106_742
*1157 FILLER_106_749
*1158 FILLER_106_756
*1159 FILLER_106_763
*1160 FILLER_106_77
*1161 FILLER_106_770
*1162 FILLER_106_777
*1163 FILLER_106_784
*1164 FILLER_106_791
*1165 FILLER_106_798
*1166 FILLER_106_805
*1167 FILLER_106_812
*1168 FILLER_106_819
*1169 FILLER_106_826
*1170 FILLER_106_833
*1171 FILLER_106_84
*1172 FILLER_106_840
*1173 FILLER_106_847
*1174 FILLER_106_854
*1175 FILLER_106_861
*1176 FILLER_106_868
*1177 FILLER_106_875
*1178 FILLER_106_882
*1179 FILLER_106_889
*1180 FILLER_106_896
*1181 FILLER_106_903
*1182 FILLER_106_91
*1183 FILLER_106_910
*1184 FILLER_106_917
*1185 FILLER_106_924
*1186 FILLER_106_931
*1187 FILLER_106_938
*1188 FILLER_106_945
*1189 FILLER_106_952
*1190 FILLER_106_959
*1191 FILLER_106_966
*1192 FILLER_106_973
*1193 FILLER_106_98
*1194 FILLER_106_980
*1195 FILLER_106_987
*1196 FILLER_106_994
*1197 FILLER_107_0
*1198 FILLER_107_1001
*1199 FILLER_107_105
*1200 FILLER_107_112
*1201 FILLER_107_119
*1202 FILLER_107_126
*1203 FILLER_107_133
*1204 FILLER_107_14
*1205 FILLER_107_140
*1206 FILLER_107_147
*1207 FILLER_107_154
*1208 FILLER_107_161
*1209 FILLER_107_168
*1210 FILLER_107_175
*1211 FILLER_107_182
*1212 FILLER_107_189
*1213 FILLER_107_196
*1214 FILLER_107_203
*1215 FILLER_107_21
*1216 FILLER_107_210
*1217 FILLER_107_217
*1218 FILLER_107_224
*1219 FILLER_107_231
*1220 FILLER_107_238
*1221 FILLER_107_245
*1222 FILLER_107_252
*1223 FILLER_107_259
*1224 FILLER_107_266
*1225 FILLER_107_273
*1226 FILLER_107_28
*1227 FILLER_107_280
*1228 FILLER_107_287
*1229 FILLER_107_294
*1230 FILLER_107_301
*1231 FILLER_107_308
*1232 FILLER_107_315
*1233 FILLER_107_322
*1234 FILLER_107_329
*1235 FILLER_107_336
*1236 FILLER_107_343
*1237 FILLER_107_35
*1238 FILLER_107_350
*1239 FILLER_107_357
*1240 FILLER_107_364
*1241 FILLER_107_371
*1242 FILLER_107_378
*1243 FILLER_107_385
*1244 FILLER_107_392
*1245 FILLER_107_399
*1246 FILLER_107_406
*1247 FILLER_107_413
*1248 FILLER_107_42
*1249 FILLER_107_420
*1250 FILLER_107_427
*1251 FILLER_107_434
*1252 FILLER_107_441
*1253 FILLER_107_448
*1254 FILLER_107_455
*1255 FILLER_107_462
*1256 FILLER_107_469
*1257 FILLER_107_476
*1258 FILLER_107_483
*1259 FILLER_107_49
*1260 FILLER_107_490
*1261 FILLER_107_497
*1262 FILLER_107_504
*1263 FILLER_107_511
*1264 FILLER_107_518
*1265 FILLER_107_525
*1266 FILLER_107_532
*1267 FILLER_107_539
*1268 FILLER_107_546
*1269 FILLER_107_553
*1270 FILLER_107_56
*1271 FILLER_107_560
*1272 FILLER_107_567
*1273 FILLER_107_574
*1274 FILLER_107_581
*1275 FILLER_107_588
*1276 FILLER_107_595
*1277 FILLER_107_602
*1278 FILLER_107_609
*1279 FILLER_107_616
*1280 FILLER_107_623
*1281 FILLER_107_63
*1282 FILLER_107_630
*1283 FILLER_107_637
*1284 FILLER_107_644
*1285 FILLER_107_651
*1286 FILLER_107_658
*1287 FILLER_107_665
*1288 FILLER_107_672
*1289 FILLER_107_679
*1290 FILLER_107_686
*1291 FILLER_107_693
*1292 FILLER_107_7
*1293 FILLER_107_70
*1294 FILLER_107_700
*1295 FILLER_107_707
*1296 FILLER_107_714
*1297 FILLER_107_721
*1298 FILLER_107_728
*1299 FILLER_107_735
*1300 FILLER_107_742
*1301 FILLER_107_749
*1302 FILLER_107_756
*1303 FILLER_107_763
*1304 FILLER_107_77
*1305 FILLER_107_770
*1306 FILLER_107_777
*1307 FILLER_107_784
*1308 FILLER_107_791
*1309 FILLER_107_798
*1310 FILLER_107_805
*1311 FILLER_107_812
*1312 FILLER_107_819
*1313 FILLER_107_826
*1314 FILLER_107_833
*1315 FILLER_107_84
*1316 FILLER_107_840
*1317 FILLER_107_847
*1318 FILLER_107_854
*1319 FILLER_107_861
*1320 FILLER_107_868
*1321 FILLER_107_875
*1322 FILLER_107_882
*1323 FILLER_107_889
*1324 FILLER_107_896
*1325 FILLER_107_903
*1326 FILLER_107_91
*1327 FILLER_107_910
*1328 FILLER_107_917
*1329 FILLER_107_924
*1330 FILLER_107_931
*1331 FILLER_107_938
*1332 FILLER_107_945
*1333 FILLER_107_952
*1334 FILLER_107_959
*1335 FILLER_107_966
*1336 FILLER_107_973
*1337 FILLER_107_98
*1338 FILLER_107_980
*1339 FILLER_107_987
*1340 FILLER_107_994
*1341 FILLER_108_0
*1342 FILLER_108_1001
*1343 FILLER_108_105
*1344 FILLER_108_112
*1345 FILLER_108_119
*1346 FILLER_108_126
*1347 FILLER_108_133
*1348 FILLER_108_14
*1349 FILLER_108_140
*1350 FILLER_108_147
*1351 FILLER_108_154
*1352 FILLER_108_161
*1353 FILLER_108_168
*1354 FILLER_108_175
*1355 FILLER_108_182
*1356 FILLER_108_189
*1357 FILLER_108_196
*1358 FILLER_108_203
*1359 FILLER_108_21
*1360 FILLER_108_210
*1361 FILLER_108_217
*1362 FILLER_108_224
*1363 FILLER_108_231
*1364 FILLER_108_238
*1365 FILLER_108_245
*1366 FILLER_108_252
*1367 FILLER_108_259
*1368 FILLER_108_266
*1369 FILLER_108_273
*1370 FILLER_108_28
*1371 FILLER_108_280
*1372 FILLER_108_287
*1373 FILLER_108_294
*1374 FILLER_108_301
*1375 FILLER_108_308
*1376 FILLER_108_315
*1377 FILLER_108_322
*1378 FILLER_108_329
*1379 FILLER_108_336
*1380 FILLER_108_343
*1381 FILLER_108_35
*1382 FILLER_108_350
*1383 FILLER_108_357
*1384 FILLER_108_364
*1385 FILLER_108_371
*1386 FILLER_108_378
*1387 FILLER_108_385
*1388 FILLER_108_392
*1389 FILLER_108_399
*1390 FILLER_108_406
*1391 FILLER_108_413
*1392 FILLER_108_42
*1393 FILLER_108_420
*1394 FILLER_108_427
*1395 FILLER_108_434
*1396 FILLER_108_441
*1397 FILLER_108_448
*1398 FILLER_108_455
*1399 FILLER_108_462
*1400 FILLER_108_469
*1401 FILLER_108_476
*1402 FILLER_108_483
*1403 FILLER_108_49
*1404 FILLER_108_490
*1405 FILLER_108_497
*1406 FILLER_108_504
*1407 FILLER_108_511
*1408 FILLER_108_518
*1409 FILLER_108_525
*1410 FILLER_108_532
*1411 FILLER_108_539
*1412 FILLER_108_546
*1413 FILLER_108_553
*1414 FILLER_108_56
*1415 FILLER_108_560
*1416 FILLER_108_567
*1417 FILLER_108_574
*1418 FILLER_108_581
*1419 FILLER_108_588
*1420 FILLER_108_595
*1421 FILLER_108_602
*1422 FILLER_108_609
*1423 FILLER_108_616
*1424 FILLER_108_623
*1425 FILLER_108_63
*1426 FILLER_108_630
*1427 FILLER_108_637
*1428 FILLER_108_644
*1429 FILLER_108_651
*1430 FILLER_108_658
*1431 FILLER_108_665
*1432 FILLER_108_672
*1433 FILLER_108_679
*1434 FILLER_108_686
*1435 FILLER_108_693
*1436 FILLER_108_7
*1437 FILLER_108_70
*1438 FILLER_108_700
*1439 FILLER_108_707
*1440 FILLER_108_714
*1441 FILLER_108_721
*1442 FILLER_108_728
*1443 FILLER_108_735
*1444 FILLER_108_742
*1445 FILLER_108_749
*1446 FILLER_108_756
*1447 FILLER_108_763
*1448 FILLER_108_77
*1449 FILLER_108_770
*1450 FILLER_108_777
*1451 FILLER_108_784
*1452 FILLER_108_791
*1453 FILLER_108_798
*1454 FILLER_108_805
*1455 FILLER_108_812
*1456 FILLER_108_819
*1457 FILLER_108_826
*1458 FILLER_108_833
*1459 FILLER_108_84
*1460 FILLER_108_840
*1461 FILLER_108_847
*1462 FILLER_108_854
*1463 FILLER_108_861
*1464 FILLER_108_868
*1465 FILLER_108_875
*1466 FILLER_108_882
*1467 FILLER_108_889
*1468 FILLER_108_896
*1469 FILLER_108_903
*1470 FILLER_108_91
*1471 FILLER_108_910
*1472 FILLER_108_917
*1473 FILLER_108_924
*1474 FILLER_108_931
*1475 FILLER_108_938
*1476 FILLER_108_945
*1477 FILLER_108_952
*1478 FILLER_108_959
*1479 FILLER_108_966
*1480 FILLER_108_973
*1481 FILLER_108_98
*1482 FILLER_108_980
*1483 FILLER_108_987
*1484 FILLER_108_994
*1485 FILLER_109_0
*1486 FILLER_109_1001
*1487 FILLER_109_105
*1488 FILLER_109_112
*1489 FILLER_109_119
*1490 FILLER_109_126
*1491 FILLER_109_133
*1492 FILLER_109_14
*1493 FILLER_109_140
*1494 FILLER_109_147
*1495 FILLER_109_154
*1496 FILLER_109_161
*1497 FILLER_109_168