*SPEF "ieee 1481-1999"
*DESIGN "FMD_QNC_Padframe24"
*DATE "12:51:08 Friday February 20, 2026"
*VENDOR "The OpenROAD Project"
*PROGRAM "OpenROAD"
*VERSION "dfc4f595dfb2e1c346492ff1f0274abb28725acf"
*DESIGN_FLOW "NAME_SCOPE LOCAL" "PIN_CAP NONE"
*DIVIDER /
*DELIMITER :
*BUS_DELIMITER []
*T_UNIT 1 NS
*C_UNIT 1 PF
*R_UNIT 1 OHM
*L_UNIT 1 HENRY

*NAME_MAP
*5 clk_PAD
*6 input_PAD[0]
*7 input_PAD[1]
*8 input_PAD[2]
*9 input_PAD[3]
*10 input_PAD[4]
*11 input_PAD[5]
*12 input_PAD[6]
*13 input_PAD[7]
*14 output_PAD[0]
*15 output_PAD[1]
*16 output_PAD[2]
*17 output_PAD[3]
*18 output_PAD[4]
*19 output_PAD[5]
*20 output_PAD[6]
*21 output_PAD[7]
*22 output_PAD[8]
*23 output_PAD[9]
*24 rst_n_PAD
*25 _00_
*26 _01_
*27 _02_
*28 _03_
*29 _04_
*30 _05_
*31 _06_
*32 _07_
*33 _08_
*34 _09_
*35 _10_
*36 _11_
*37 _12_
*38 _13_
*39 _14_
*40 _15_
*41 _16_
*42 _17_
*43 _18_
*44 _19_
*45 _20_
*46 _21_
*47 _22_
*48 _23_
*49 _24_
*50 _25_
*51 _26_
*52 _27_
*53 _28_
*54 _29_
*55 _30_
*56 _31_
*57 _32_
*58 clk_PAD2CORE
*59 clknet_0_clk_PAD2CORE
*60 clknet_1_0__leaf_clk_PAD2CORE
*61 clknet_1_1__leaf_clk_PAD2CORE
*62 i_chip_core\.count\[0\]
*63 i_chip_core\.count\[1\]
*64 i_chip_core\.count\[2\]
*65 i_chip_core\.count\[3\]
*66 i_chip_core\.count\[4\]
*67 i_chip_core\.count\[5\]
*68 i_chip_core\.count\[6\]
*69 i_chip_core\.count\[7\]
*70 i_chip_core\.input_in\[0\]
*71 i_chip_core\.input_in\[1\]
*72 i_chip_core\.input_in\[2\]
*73 i_chip_core\.input_in\[3\]
*74 i_chip_core\.input_in\[4\]
*75 i_chip_core\.input_in\[5\]
*76 i_chip_core\.input_in\[6\]
*77 i_chip_core\.input_in\[7\]
*78 i_chip_core\.rst_n
*79 net
*80 net1
*81 net10
*82 net11
*83 net12
*84 net13
*85 net14
*86 net15
*87 net16
*88 net17
*89 net18
*90 net19
*91 net2
*92 net20
*93 net21
*94 net22
*95 net23
*96 net24
*97 net25
*98 net26
*99 net27
*100 net28
*101 net29
*102 net3
*103 net30
*104 net4
*105 net5
*106 net6
*107 net7
*108 net8
*109 net9
*110 FILLER_0_0
*111 FILLER_0_105
*112 FILLER_0_112
*113 FILLER_0_119
*114 FILLER_0_126
*115 FILLER_0_133
*116 FILLER_0_14
*117 FILLER_0_140
*118 FILLER_0_147
*119 FILLER_0_154
*120 FILLER_0_161
*121 FILLER_0_168
*122 FILLER_0_175
*123 FILLER_0_182
*124 FILLER_0_189
*125 FILLER_0_196
*126 FILLER_0_203
*127 FILLER_0_21
*128 FILLER_0_210
*129 FILLER_0_217
*130 FILLER_0_224
*131 FILLER_0_231
*132 FILLER_0_238
*133 FILLER_0_245
*134 FILLER_0_252
*135 FILLER_0_259
*136 FILLER_0_266
*137 FILLER_0_273
*138 FILLER_0_28
*139 FILLER_0_280
*140 FILLER_0_287
*141 FILLER_0_294
*142 FILLER_0_301
*143 FILLER_0_308
*144 FILLER_0_315
*145 FILLER_0_322
*146 FILLER_0_329
*147 FILLER_0_336
*148 FILLER_0_343
*149 FILLER_0_35
*150 FILLER_0_350
*151 FILLER_0_357
*152 FILLER_0_364
*153 FILLER_0_371
*154 FILLER_0_378
*155 FILLER_0_385
*156 FILLER_0_392
*157 FILLER_0_399
*158 FILLER_0_406
*159 FILLER_0_413
*160 FILLER_0_42
*161 FILLER_0_420
*162 FILLER_0_427
*163 FILLER_0_434
*164 FILLER_0_441
*165 FILLER_0_448
*166 FILLER_0_455
*167 FILLER_0_462
*168 FILLER_0_469
*169 FILLER_0_476
*170 FILLER_0_483
*171 FILLER_0_49
*172 FILLER_0_490
*173 FILLER_0_497
*174 FILLER_0_504
*175 FILLER_0_511
*176 FILLER_0_518
*177 FILLER_0_525
*178 FILLER_0_532
*179 FILLER_0_539
*180 FILLER_0_546
*181 FILLER_0_553
*182 FILLER_0_56
*183 FILLER_0_560
*184 FILLER_0_567
*185 FILLER_0_574
*186 FILLER_0_581
*187 FILLER_0_588
*188 FILLER_0_595
*189 FILLER_0_602
*190 FILLER_0_609
*191 FILLER_0_616
*192 FILLER_0_623
*193 FILLER_0_63
*194 FILLER_0_630
*195 FILLER_0_637
*196 FILLER_0_644
*197 FILLER_0_651
*198 FILLER_0_658
*199 FILLER_0_665
*200 FILLER_0_672
*201 FILLER_0_679
*202 FILLER_0_686
*203 FILLER_0_693
*204 FILLER_0_7
*205 FILLER_0_70
*206 FILLER_0_700
*207 FILLER_0_707
*208 FILLER_0_714
*209 FILLER_0_721
*210 FILLER_0_728
*211 FILLER_0_735
*212 FILLER_0_742
*213 FILLER_0_749
*214 FILLER_0_77
*215 FILLER_0_84
*216 FILLER_0_91
*217 FILLER_0_98
*218 FILLER_10_0
*219 FILLER_10_105
*220 FILLER_10_112
*221 FILLER_10_119
*222 FILLER_10_126
*223 FILLER_10_133
*224 FILLER_10_14
*225 FILLER_10_140
*226 FILLER_10_147
*227 FILLER_10_154
*228 FILLER_10_161
*229 FILLER_10_168
*230 FILLER_10_175
*231 FILLER_10_182
*232 FILLER_10_189
*233 FILLER_10_196
*234 FILLER_10_203
*235 FILLER_10_21
*236 FILLER_10_210
*237 FILLER_10_217
*238 FILLER_10_224
*239 FILLER_10_231
*240 FILLER_10_238
*241 FILLER_10_245
*242 FILLER_10_252
*243 FILLER_10_259
*244 FILLER_10_266
*245 FILLER_10_273
*246 FILLER_10_28
*247 FILLER_10_280
*248 FILLER_10_287
*249 FILLER_10_294
*250 FILLER_10_301
*251 FILLER_10_308
*252 FILLER_10_315
*253 FILLER_10_322
*254 FILLER_10_329
*255 FILLER_10_336
*256 FILLER_10_343
*257 FILLER_10_35
*258 FILLER_10_350
*259 FILLER_10_357
*260 FILLER_10_364
*261 FILLER_10_371
*262 FILLER_10_378
*263 FILLER_10_385
*264 FILLER_10_392
*265 FILLER_10_399
*266 FILLER_10_406
*267 FILLER_10_413
*268 FILLER_10_42
*269 FILLER_10_420
*270 FILLER_10_427
*271 FILLER_10_434
*272 FILLER_10_441
*273 FILLER_10_448
*274 FILLER_10_455
*275 FILLER_10_462
*276 FILLER_10_469
*277 FILLER_10_476
*278 FILLER_10_483
*279 FILLER_10_49
*280 FILLER_10_490
*281 FILLER_10_497
*282 FILLER_10_504
*283 FILLER_10_511
*284 FILLER_10_518
*285 FILLER_10_525
*286 FILLER_10_532
*287 FILLER_10_539
*288 FILLER_10_546
*289 FILLER_10_553
*290 FILLER_10_56
*291 FILLER_10_560
*292 FILLER_10_567
*293 FILLER_10_574
*294 FILLER_10_581
*295 FILLER_10_588
*296 FILLER_10_595
*297 FILLER_10_602
*298 FILLER_10_609
*299 FILLER_10_616
*300 FILLER_10_623
*301 FILLER_10_63
*302 FILLER_10_630
*303 FILLER_10_637
*304 FILLER_10_644
*305 FILLER_10_651
*306 FILLER_10_658
*307 FILLER_10_665
*308 FILLER_10_672
*309 FILLER_10_679
*310 FILLER_10_686
*311 FILLER_10_693
*312 FILLER_10_7
*313 FILLER_10_70
*314 FILLER_10_700
*315 FILLER_10_707
*316 FILLER_10_714
*317 FILLER_10_721
*318 FILLER_10_728
*319 FILLER_10_735
*320 FILLER_10_742
*321 FILLER_10_749
*322 FILLER_10_756
*323 FILLER_10_77
*324 FILLER_10_84
*325 FILLER_10_91
*326 FILLER_10_98
*327 FILLER_11_0
*328 FILLER_11_105
*329 FILLER_11_112
*330 FILLER_11_119
*331 FILLER_11_126
*332 FILLER_11_133
*333 FILLER_11_14
*334 FILLER_11_140
*335 FILLER_11_147
*336 FILLER_11_154
*337 FILLER_11_161
*338 FILLER_11_168
*339 FILLER_11_175
*340 FILLER_11_182
*341 FILLER_11_189
*342 FILLER_11_196
*343 FILLER_11_203
*344 FILLER_11_21
*345 FILLER_11_210
*346 FILLER_11_217
*347 FILLER_11_224
*348 FILLER_11_231
*349 FILLER_11_238
*350 FILLER_11_245
*351 FILLER_11_252
*352 FILLER_11_259
*353 FILLER_11_266
*354 FILLER_11_273
*355 FILLER_11_28
*356 FILLER_11_280
*357 FILLER_11_287
*358 FILLER_11_294
*359 FILLER_11_301
*360 FILLER_11_308
*361 FILLER_11_315
*362 FILLER_11_322
*363 FILLER_11_329
*364 FILLER_11_336
*365 FILLER_11_343
*366 FILLER_11_35
*367 FILLER_11_350
*368 FILLER_11_357
*369 FILLER_11_364
*370 FILLER_11_371
*371 FILLER_11_378
*372 FILLER_11_385
*373 FILLER_11_392
*374 FILLER_11_399
*375 FILLER_11_406
*376 FILLER_11_413
*377 FILLER_11_42
*378 FILLER_11_420
*379 FILLER_11_427
*380 FILLER_11_434
*381 FILLER_11_441
*382 FILLER_11_448
*383 FILLER_11_455
*384 FILLER_11_462
*385 FILLER_11_469
*386 FILLER_11_476
*387 FILLER_11_483
*388 FILLER_11_49
*389 FILLER_11_490
*390 FILLER_11_497
*391 FILLER_11_504
*392 FILLER_11_511
*393 FILLER_11_518
*394 FILLER_11_525
*395 FILLER_11_532
*396 FILLER_11_539
*397 FILLER_11_546
*398 FILLER_11_553
*399 FILLER_11_56
*400 FILLER_11_560
*401 FILLER_11_567
*402 FILLER_11_574
*403 FILLER_11_581
*404 FILLER_11_588
*405 FILLER_11_595
*406 FILLER_11_602
*407 FILLER_11_609
*408 FILLER_11_616
*409 FILLER_11_623
*410 FILLER_11_63
*411 FILLER_11_630
*412 FILLER_11_637
*413 FILLER_11_644
*414 FILLER_11_651
*415 FILLER_11_658
*416 FILLER_11_665
*417 FILLER_11_672
*418 FILLER_11_679
*419 FILLER_11_686
*420 FILLER_11_693
*421 FILLER_11_7
*422 FILLER_11_70
*423 FILLER_11_700
*424 FILLER_11_707
*425 FILLER_11_714
*426 FILLER_11_721
*427 FILLER_11_728
*428 FILLER_11_735
*429 FILLER_11_742
*430 FILLER_11_749
*431 FILLER_11_756
*432 FILLER_11_77
*433 FILLER_11_84
*434 FILLER_11_91
*435 FILLER_11_98
*436 FILLER_12_0
*437 FILLER_12_105
*438 FILLER_12_112
*439 FILLER_12_119
*440 FILLER_12_126
*441 FILLER_12_133
*442 FILLER_12_14
*443 FILLER_12_140
*444 FILLER_12_147
*445 FILLER_12_154
*446 FILLER_12_161
*447 FILLER_12_168
*448 FILLER_12_175
*449 FILLER_12_182
*450 FILLER_12_189
*451 FILLER_12_196
*452 FILLER_12_203
*453 FILLER_12_21
*454 FILLER_12_210
*455 FILLER_12_217
*456 FILLER_12_224
*457 FILLER_12_231
*458 FILLER_12_238
*459 FILLER_12_245
*460 FILLER_12_252
*461 FILLER_12_259
*462 FILLER_12_266
*463 FILLER_12_273
*464 FILLER_12_28
*465 FILLER_12_280
*466 FILLER_12_287
*467 FILLER_12_294
*468 FILLER_12_301
*469 FILLER_12_308
*470 FILLER_12_315
*471 FILLER_12_322
*472 FILLER_12_329
*473 FILLER_12_336
*474 FILLER_12_343
*475 FILLER_12_35
*476 FILLER_12_350
*477 FILLER_12_357
*478 FILLER_12_364
*479 FILLER_12_371
*480 FILLER_12_378
*481 FILLER_12_385
*482 FILLER_12_392
*483 FILLER_12_399
*484 FILLER_12_406
*485 FILLER_12_413
*486 FILLER_12_42
*487 FILLER_12_420
*488 FILLER_12_427
*489 FILLER_12_434
*490 FILLER_12_441
*491 FILLER_12_448
*492 FILLER_12_455
*493 FILLER_12_462
*494 FILLER_12_469
*495 FILLER_12_476
*496 FILLER_12_483
*497 FILLER_12_49
*498 FILLER_12_490
*499 FILLER_12_497
*500 FILLER_12_504
*501 FILLER_12_511
*502 FILLER_12_518
*503 FILLER_12_525
*504 FILLER_12_532
*505 FILLER_12_539
*506 FILLER_12_546
*507 FILLER_12_553
*508 FILLER_12_56
*509 FILLER_12_560
*510 FILLER_12_567
*511 FILLER_12_574
*512 FILLER_12_581
*513 FILLER_12_588
*514 FILLER_12_595
*515 FILLER_12_602
*516 FILLER_12_609
*517 FILLER_12_616
*518 FILLER_12_623
*519 FILLER_12_63
*520 FILLER_12_630
*521 FILLER_12_637
*522 FILLER_12_644
*523 FILLER_12_651
*524 FILLER_12_658
*525 FILLER_12_665
*526 FILLER_12_672
*527 FILLER_12_679
*528 FILLER_12_686
*529 FILLER_12_693
*530 FILLER_12_7
*531 FILLER_12_70
*532 FILLER_12_700
*533 FILLER_12_707
*534 FILLER_12_714
*535 FILLER_12_721
*536 FILLER_12_728
*537 FILLER_12_735
*538 FILLER_12_742
*539 FILLER_12_749
*540 FILLER_12_756
*541 FILLER_12_77
*542 FILLER_12_84
*543 FILLER_12_91
*544 FILLER_12_98
*545 FILLER_13_0
*546 FILLER_13_105
*547 FILLER_13_112
*548 FILLER_13_119
*549 FILLER_13_126
*550 FILLER_13_133
*551 FILLER_13_14
*552 FILLER_13_140
*553 FILLER_13_147
*554 FILLER_13_154
*555 FILLER_13_161
*556 FILLER_13_168
*557 FILLER_13_175
*558 FILLER_13_182
*559 FILLER_13_189
*560 FILLER_13_196
*561 FILLER_13_203
*562 FILLER_13_21
*563 FILLER_13_210
*564 FILLER_13_217
*565 FILLER_13_224
*566 FILLER_13_231
*567 FILLER_13_238
*568 FILLER_13_245
*569 FILLER_13_252
*570 FILLER_13_259
*571 FILLER_13_266
*572 FILLER_13_273
*573 FILLER_13_28
*574 FILLER_13_280
*575 FILLER_13_287
*576 FILLER_13_294
*577 FILLER_13_301
*578 FILLER_13_308
*579 FILLER_13_315
*580 FILLER_13_322
*581 FILLER_13_329
*582 FILLER_13_336
*583 FILLER_13_343
*584 FILLER_13_35
*585 FILLER_13_350
*586 FILLER_13_357
*587 FILLER_13_364
*588 FILLER_13_371
*589 FILLER_13_378
*590 FILLER_13_385
*591 FILLER_13_392
*592 FILLER_13_399
*593 FILLER_13_406
*594 FILLER_13_413
*595 FILLER_13_42
*596 FILLER_13_420
*597 FILLER_13_427
*598 FILLER_13_434
*599 FILLER_13_441
*600 FILLER_13_448
*601 FILLER_13_455
*602 FILLER_13_462
*603 FILLER_13_469
*604 FILLER_13_476
*605 FILLER_13_483
*606 FILLER_13_49
*607 FILLER_13_490
*608 FILLER_13_497
*609 FILLER_13_504
*610 FILLER_13_511
*611 FILLER_13_518
*612 FILLER_13_525
*613 FILLER_13_532
*614 FILLER_13_539
*615 FILLER_13_546
*616 FILLER_13_553
*617 FILLER_13_56
*618 FILLER_13_560
*619 FILLER_13_567
*620 FILLER_13_574
*621 FILLER_13_581
*622 FILLER_13_588
*623 FILLER_13_595
*624 FILLER_13_602
*625 FILLER_13_609
*626 FILLER_13_616
*627 FILLER_13_623
*628 FILLER_13_63
*629 FILLER_13_630
*630 FILLER_13_637
*631 FILLER_13_644
*632 FILLER_13_651
*633 FILLER_13_658
*634 FILLER_13_665
*635 FILLER_13_672
*636 FILLER_13_679
*637 FILLER_13_686
*638 FILLER_13_693
*639 FILLER_13_7
*640 FILLER_13_70
*641 FILLER_13_700
*642 FILLER_13_707
*643 FILLER_13_714
*644 FILLER_13_721
*645 FILLER_13_728
*646 FILLER_13_735
*647 FILLER_13_742
*648 FILLER_13_749
*649 FILLER_13_756
*650 FILLER_13_77
*651 FILLER_13_84
*652 FILLER_13_91
*653 FILLER_13_98
*654 FILLER_14_0
*655 FILLER_14_105
*656 FILLER_14_112
*657 FILLER_14_119
*658 FILLER_14_126
*659 FILLER_14_133
*660 FILLER_14_14
*661 FILLER_14_140
*662 FILLER_14_147
*663 FILLER_14_154
*664 FILLER_14_161
*665 FILLER_14_168
*666 FILLER_14_175
*667 FILLER_14_182
*668 FILLER_14_189
*669 FILLER_14_196
*670 FILLER_14_203
*671 FILLER_14_21
*672 FILLER_14_210
*673 FILLER_14_217
*674 FILLER_14_224
*675 FILLER_14_231
*676 FILLER_14_238
*677 FILLER_14_245
*678 FILLER_14_252
*679 FILLER_14_259
*680 FILLER_14_266
*681 FILLER_14_273
*682 FILLER_14_28
*683 FILLER_14_280
*684 FILLER_14_287
*685 FILLER_14_294
*686 FILLER_14_301
*687 FILLER_14_308
*688 FILLER_14_315
*689 FILLER_14_322
*690 FILLER_14_329
*691 FILLER_14_336
*692 FILLER_14_343
*693 FILLER_14_35
*694 FILLER_14_350
*695 FILLER_14_357
*696 FILLER_14_364
*697 FILLER_14_371
*698 FILLER_14_378
*699 FILLER_14_385
*700 FILLER_14_392
*701 FILLER_14_399
*702 FILLER_14_406
*703 FILLER_14_413
*704 FILLER_14_42
*705 FILLER_14_420
*706 FILLER_14_427
*707 FILLER_14_434
*708 FILLER_14_441
*709 FILLER_14_448
*710 FILLER_14_455
*711 FILLER_14_462
*712 FILLER_14_469
*713 FILLER_14_476
*714 FILLER_14_483
*715 FILLER_14_49
*716 FILLER_14_490
*717 FILLER_14_497
*718 FILLER_14_504
*719 FILLER_14_511
*720 FILLER_14_518
*721 FILLER_14_525
*722 FILLER_14_532
*723 FILLER_14_539
*724 FILLER_14_546
*725 FILLER_14_553
*726 FILLER_14_56
*727 FILLER_14_560
*728 FILLER_14_567
*729 FILLER_14_574
*730 FILLER_14_581
*731 FILLER_14_588
*732 FILLER_14_595
*733 FILLER_14_602
*734 FILLER_14_609
*735 FILLER_14_616
*736 FILLER_14_623
*737 FILLER_14_63
*738 FILLER_14_630
*739 FILLER_14_637
*740 FILLER_14_644
*741 FILLER_14_651
*742 FILLER_14_658
*743 FILLER_14_665
*744 FILLER_14_672
*745 FILLER_14_679
*746 FILLER_14_686
*747 FILLER_14_693
*748 FILLER_14_7
*749 FILLER_14_70
*750 FILLER_14_700
*751 FILLER_14_707
*752 FILLER_14_714
*753 FILLER_14_721
*754 FILLER_14_728
*755 FILLER_14_735
*756 FILLER_14_742
*757 FILLER_14_749
*758 FILLER_14_756
*759 FILLER_14_77
*760 FILLER_14_84
*761 FILLER_14_91
*762 FILLER_14_98
*763 FILLER_15_0
*764 FILLER_15_105
*765 FILLER_15_112
*766 FILLER_15_119
*767 FILLER_15_126
*768 FILLER_15_133
*769 FILLER_15_14
*770 FILLER_15_140
*771 FILLER_15_147
*772 FILLER_15_154
*773 FILLER_15_161
*774 FILLER_15_168
*775 FILLER_15_175
*776 FILLER_15_182
*777 FILLER_15_189
*778 FILLER_15_196
*779 FILLER_15_203
*780 FILLER_15_21
*781 FILLER_15_210
*782 FILLER_15_217
*783 FILLER_15_224
*784 FILLER_15_231
*785 FILLER_15_238
*786 FILLER_15_245
*787 FILLER_15_252
*788 FILLER_15_259
*789 FILLER_15_266
*790 FILLER_15_273
*791 FILLER_15_28
*792 FILLER_15_280
*793 FILLER_15_287
*794 FILLER_15_294
*795 FILLER_15_301
*796 FILLER_15_308
*797 FILLER_15_315
*798 FILLER_15_322
*799 FILLER_15_329
*800 FILLER_15_336
*801 FILLER_15_343
*802 FILLER_15_35
*803 FILLER_15_350
*804 FILLER_15_357
*805 FILLER_15_364
*806 FILLER_15_371
*807 FILLER_15_378
*808 FILLER_15_385
*809 FILLER_15_392
*810 FILLER_15_399
*811 FILLER_15_406
*812 FILLER_15_413
*813 FILLER_15_42
*814 FILLER_15_420
*815 FILLER_15_427
*816 FILLER_15_434
*817 FILLER_15_441
*818 FILLER_15_448
*819 FILLER_15_455
*820 FILLER_15_462
*821 FILLER_15_469
*822 FILLER_15_476
*823 FILLER_15_483
*824 FILLER_15_49
*825 FILLER_15_490
*826 FILLER_15_497
*827 FILLER_15_504
*828 FILLER_15_511
*829 FILLER_15_518
*830 FILLER_15_525
*831 FILLER_15_532
*832 FILLER_15_539
*833 FILLER_15_546
*834 FILLER_15_553
*835 FILLER_15_56
*836 FILLER_15_560
*837 FILLER_15_567
*838 FILLER_15_574
*839 FILLER_15_581
*840 FILLER_15_588
*841 FILLER_15_595
*842 FILLER_15_602
*843 FILLER_15_609
*844 FILLER_15_616
*845 FILLER_15_623
*846 FILLER_15_63
*847 FILLER_15_630
*848 FILLER_15_637
*849 FILLER_15_644
*850 FILLER_15_651
*851 FILLER_15_658
*852 FILLER_15_665
*853 FILLER_15_672
*854 FILLER_15_679
*855 FILLER_15_686
*856 FILLER_15_693
*857 FILLER_15_7
*858 FILLER_15_70
*859 FILLER_15_700
*860 FILLER_15_707
*861 FILLER_15_714
*862 FILLER_15_721
*863 FILLER_15_728
*864 FILLER_15_735
*865 FILLER_15_742
*866 FILLER_15_749
*867 FILLER_15_756
*868 FILLER_15_77
*869 FILLER_15_84
*870 FILLER_15_91
*871 FILLER_15_98
*872 FILLER_16_0
*873 FILLER_16_105
*874 FILLER_16_112
*875 FILLER_16_119
*876 FILLER_16_126
*877 FILLER_16_133
*878 FILLER_16_14
*879 FILLER_16_140
*880 FILLER_16_147
*881 FILLER_16_154
*882 FILLER_16_161
*883 FILLER_16_168
*884 FILLER_16_175
*885 FILLER_16_182
*886 FILLER_16_189
*887 FILLER_16_196
*888 FILLER_16_203
*889 FILLER_16_21
*890 FILLER_16_210
*891 FILLER_16_217
*892 FILLER_16_224
*893 FILLER_16_231
*894 FILLER_16_238
*895 FILLER_16_245
*896 FILLER_16_252
*897 FILLER_16_259
*898 FILLER_16_266
*899 FILLER_16_273
*900 FILLER_16_28
*901 FILLER_16_280
*902 FILLER_16_287
*903 FILLER_16_294
*904 FILLER_16_301
*905 FILLER_16_308
*906 FILLER_16_315
*907 FILLER_16_322
*908 FILLER_16_329
*909 FILLER_16_336
*910 FILLER_16_343
*911 FILLER_16_35
*912 FILLER_16_350
*913 FILLER_16_357
*914 FILLER_16_364
*915 FILLER_16_371
*916 FILLER_16_378
*917 FILLER_16_385
*918 FILLER_16_392
*919 FILLER_16_399
*920 FILLER_16_406
*921 FILLER_16_413
*922 FILLER_16_42
*923 FILLER_16_420
*924 FILLER_16_427
*925 FILLER_16_434
*926 FILLER_16_441
*927 FILLER_16_448
*928 FILLER_16_455
*929 FILLER_16_462
*930 FILLER_16_469
*931 FILLER_16_476
*932 FILLER_16_483
*933 FILLER_16_49
*934 FILLER_16_490
*935 FILLER_16_497
*936 FILLER_16_504
*937 FILLER_16_511
*938 FILLER_16_518
*939 FILLER_16_525
*940 FILLER_16_532
*941 FILLER_16_539
*942 FILLER_16_546
*943 FILLER_16_553
*944 FILLER_16_56
*945 FILLER_16_560
*946 FILLER_16_567
*947 FILLER_16_574
*948 FILLER_16_581
*949 FILLER_16_588
*950 FILLER_16_595
*951 FILLER_16_602
*952 FILLER_16_609
*953 FILLER_16_616
*954 FILLER_16_623
*955 FILLER_16_63
*956 FILLER_16_630
*957 FILLER_16_637
*958 FILLER_16_644
*959 FILLER_16_651
*960 FILLER_16_658
*961 FILLER_16_665
*962 FILLER_16_672
*963 FILLER_16_679
*964 FILLER_16_686
*965 FILLER_16_693
*966 FILLER_16_7
*967 FILLER_16_70
*968 FILLER_16_700
*969 FILLER_16_707
*970 FILLER_16_714
*971 FILLER_16_721
*972 FILLER_16_728
*973 FILLER_16_735
*974 FILLER_16_742
*975 FILLER_16_749
*976 FILLER_16_77
*977 FILLER_16_84
*978 FILLER_16_91
*979 FILLER_16_98
*980 FILLER_17_0
*981 FILLER_17_105
*982 FILLER_17_112
*983 FILLER_17_119
*984 FILLER_17_126
*985 FILLER_17_133
*986 FILLER_17_14
*987 FILLER_17_140
*988 FILLER_17_147
*989 FILLER_17_154
*990 FILLER_17_161
*991 FILLER_17_168
*992 FILLER_17_175
*993 FILLER_17_182
*994 FILLER_17_189
*995 FILLER_17_196
*996 FILLER_17_203
*997 FILLER_17_21
*998 FILLER_17_210
*999 FILLER_17_217
*1000 FILLER_17_224
*1001 FILLER_17_231
*1002 FILLER_17_238
*1003 FILLER_17_245
*1004 FILLER_17_252
*1005 FILLER_17_259
*1006 FILLER_17_266
*1007 FILLER_17_273
*1008 FILLER_17_28
*1009 FILLER_17_280
*1010 FILLER_17_287
*1011 FILLER_17_294
*1012 FILLER_17_301
*1013 FILLER_17_308
*1014 FILLER_17_315
*1015 FILLER_17_322
*1016 FILLER_17_329
*1017 FILLER_17_336
*1018 FILLER_17_343
*1019 FILLER_17_35
*1020 FILLER_17_350
*1021 FILLER_17_357
*1022 FILLER_17_364
*1023 FILLER_17_371
*1024 FILLER_17_378
*1025 FILLER_17_385
*1026 FILLER_17_392
*1027 FILLER_17_399
*1028 FILLER_17_406
*1029 FILLER_17_413
*1030 FILLER_17_42
*1031 FILLER_17_420
*1032 FILLER_17_427
*1033 FILLER_17_434
*1034 FILLER_17_441
*1035 FILLER_17_448
*1036 FILLER_17_455
*1037 FILLER_17_462
*1038 FILLER_17_469
*1039 FILLER_17_476
*1040 FILLER_17_483
*1041 FILLER_17_49
*1042 FILLER_17_490
*1043 FILLER_17_497
*1044 FILLER_17_504
*1045 FILLER_17_511
*1046 FILLER_17_518
*1047 FILLER_17_525
*1048 FILLER_17_532
*1049 FILLER_17_539
*1050 FILLER_17_546
*1051 FILLER_17_553
*1052 FILLER_17_56
*1053 FILLER_17_560
*1054 FILLER_17_567
*1055 FILLER_17_574
*1056 FILLER_17_581
*1057 FILLER_17_588
*1058 FILLER_17_595
*1059 FILLER_17_602
*1060 FILLER_17_609
*1061 FILLER_17_616
*1062 FILLER_17_623
*1063 FILLER_17_63
*1064 FILLER_17_630
*1065 FILLER_17_637
*1066 FILLER_17_644
*1067 FILLER_17_651
*1068 FILLER_17_658
*1069 FILLER_17_665
*1070 FILLER_17_672
*1071 FILLER_17_679
*1072 FILLER_17_686
*1073 FILLER_17_693
*1074 FILLER_17_7
*1075 FILLER_17_70
*1076 FILLER_17_700
*1077 FILLER_17_707
*1078 FILLER_17_714
*1079 FILLER_17_721
*1080 FILLER_17_728
*1081 FILLER_17_735
*1082 FILLER_17_742
*1083 FILLER_17_749
*1084 FILLER_17_756
*1085 FILLER_17_77
*1086 FILLER_17_84
*1087 FILLER_17_91
*1088 FILLER_17_98
*1089 FILLER_18_0
*1090 FILLER_18_105
*1091 FILLER_18_112
*1092 FILLER_18_119
*1093 FILLER_18_126
*1094 FILLER_18_133
*1095 FILLER_18_14
*1096 FILLER_18_140
*1097 FILLER_18_147
*1098 FILLER_18_154
*1099 FILLER_18_161
*1100 FILLER_18_168
*1101 FILLER_18_175
*1102 FILLER_18_182
*1103 FILLER_18_189
*1104 FILLER_18_196
*1105 FILLER_18_203
*1106 FILLER_18_21
*1107 FILLER_18_210
*1108 FILLER_18_217
*1109 FILLER_18_224
*1110 FILLER_18_231
*1111 FILLER_18_238
*1112 FILLER_18_245
*1113 FILLER_18_252
*1114 FILLER_18_259
*1115 FILLER_18_266
*1116 FILLER_18_273
*1117 FILLER_18_28
*1118 FILLER_18_280
*1119 FILLER_18_287
*1120 FILLER_18_294
*1121 FILLER_18_301
*1122 FILLER_18_308
*1123 FILLER_18_315
*1124 FILLER_18_322
*1125 FILLER_18_329
*1126 FILLER_18_336
*1127 FILLER_18_343
*1128 FILLER_18_35
*1129 FILLER_18_350
*1130 FILLER_18_357
*1131 FILLER_18_364
*1132 FILLER_18_371
*1133 FILLER_18_378
*1134 FILLER_18_385
*1135 FILLER_18_392
*1136 FILLER_18_399
*1137 FILLER_18_406
*1138 FILLER_18_413
*1139 FILLER_18_42
*1140 FILLER_18_420
*1141 FILLER_18_427
*1142 FILLER_18_434
*1143 FILLER_18_441
*1144 FILLER_18_448
*1145 FILLER_18_455
*1146 FILLER_18_462
*1147 FILLER_18_469
*1148 FILLER_18_476
*1149 FILLER_18_483
*1150 FILLER_18_49
*1151 FILLER_18_490
*1152 FILLER_18_497
*1153 FILLER_18_504
*1154 FILLER_18_511
*1155 FILLER_18_518
*1156 FILLER_18_525
*1157 FILLER_18_532
*1158 FILLER_18_539
*1159 FILLER_18_546
*1160 FILLER_18_553
*1161 FILLER_18_56
*1162 FILLER_18_560
*1163 FILLER_18_567
*1164 FILLER_18_574
*1165 FILLER_18_581
*1166 FILLER_18_588
*1167 FILLER_18_595
*1168 FILLER_18_602
*1169 FILLER_18_609
*1170 FILLER_18_616
*1171 FILLER_18_623
*1172 FILLER_18_63
*1173 FILLER_18_630
*1174 FILLER_18_637
*1175 FILLER_18_644
*1176 FILLER_18_651
*1177 FILLER_18_658
*1178 FILLER_18_665
*1179 FILLER_18_672
*1180 FILLER_18_679
*1181 FILLER_18_686
*1182 FILLER_18_693
*1183 FILLER_18_7
*1184 FILLER_18_70
*1185 FILLER_18_700
*1186 FILLER_18_707
*1187 FILLER_18_714
*1188 FILLER_18_721
*1189 FILLER_18_728
*1190 FILLER_18_735
*1191 FILLER_18_742
*1192 FILLER_18_749
*1193 FILLER_18_756
*1194 FILLER_18_77
*1195 FILLER_18_84
*1196 FILLER_18_91
*1197 FILLER_18_98
*1198 FILLER_19_0
*1199 FILLER_19_105
*1200 FILLER_19_112
*1201 FILLER_19_119
*1202 FILLER_19_126
*1203 FILLER_19_133
*1204 FILLER_19_14
*1205 FILLER_19_140
*1206 FILLER_19_147
*1207 FILLER_19_154
*1208 FILLER_19_161
*1209 FILLER_19_168
*1210 FILLER_19_175
*1211 FILLER_19_182
*1212 FILLER_19_189
*1213 FILLER_19_196
*1214 FILLER_19_203
*1215 FILLER_19_21
*1216 FILLER_19_210
*1217 FILLER_19_217
*1218 FILLER_19_224
*1219 FILLER_19_231
*1220 FILLER_19_238
*1221 FILLER_19_245
*1222 FILLER_19_252
*1223 FILLER_19_259
*1224 FILLER_19_266
*1225 FILLER_19_273
*1226 FILLER_19_28
*1227 FILLER_19_280
*1228 FILLER_19_287
*1229 FILLER_19_294
*1230 FILLER_19_301
*1231 FILLER_19_308
*1232 FILLER_19_315
*1233 FILLER_19_322
*1234 FILLER_19_329
*1235 FILLER_19_336
*1236 FILLER_19_343
*1237 FILLER_19_35
*1238 FILLER_19_350
*1239 FILLER_19_357
*1240 FILLER_19_364
*1241 FILLER_19_371
*1242 FILLER_19_378
*1243 FILLER_19_385
*1244 FILLER_19_392
*1245 FILLER_19_399
*1246 FILLER_19_406
*1247 FILLER_19_413
*1248 FILLER_19_42
*1249 FILLER_19_420
*1250 FILLER_19_427
*1251 FILLER_19_434
*1252 FILLER_19_441
*1253 FILLER_19_448
*1254 FILLER_19_455
*1255 FILLER_19_462
*1256 FILLER_19_469
*1257 FILLER_19_476
*1258 FILLER_19_483
*1259 FILLER_19_49
*1260 FILLER_19_490
*1261 FILLER_19_497
*1262 FILLER_19_504
*1263 FILLER_19_511
*1264 FILLER_19_518
*1265 FILLER_19_525
*1266 FILLER_19_532
*1267 FILLER_19_539
*1268 FILLER_19_546
*1269 FILLER_19_553
*1270 FILLER_19_56
*1271 FILLER_19_560
*1272 FILLER_19_567
*1273 FILLER_19_574
*1274 FILLER_19_581
*1275 FILLER_19_588
*1276 FILLER_19_595
*1277 FILLER_19_602
*1278 FILLER_19_609
*1279 FILLER_19_616
*1280 FILLER_19_623
*1281 FILLER_19_63
*1282 FILLER_19_630
*1283 FILLER_19_637
*1284 FILLER_19_644
*1285 FILLER_19_651
*1286 FILLER_19_658
*1287 FILLER_19_665
*1288 FILLER_19_672
*1289 FILLER_19_679
*1290 FILLER_19_686
*1291 FILLER_19_693
*1292 FILLER_19_7
*1293 FILLER_19_70
*1294 FILLER_19_700
*1295 FILLER_19_707
*1296 FILLER_19_714
*1297 FILLER_19_721
*1298 FILLER_19_728
*1299 FILLER_19_735
*1300 FILLER_19_742
*1301 FILLER_19_749
*1302 FILLER_19_756
*1303 FILLER_19_77
*1304 FILLER_19_84
*1305 FILLER_19_91
*1306 FILLER_19_98
*1307 FILLER_1_0
*1308 FILLER_1_105
*1309 FILLER_1_112
*1310 FILLER_1_119
*1311 FILLER_1_126
*1312 FILLER_1_133
*1313 FILLER_1_14
*1314 FILLER_1_140
*1315 FILLER_1_147
*1316 FILLER_1_154
*1317 FILLER_1_161
*1318 FILLER_1_168
*1319 FILLER_1_175
*1320 FILLER_1_182
*1321 FILLER_1_189
*1322 FILLER_1_196
*1323 FILLER_1_203
*1324 FILLER_1_21
*1325 FILLER_1_210
*1326 FILLER_1_217
*1327 FILLER_1_224
*1328 FILLER_1_231
*1329 FILLER_1_238
*1330 FILLER_1_245
*1331 FILLER_1_252
*1332 FILLER_1_259
*1333 FILLER_1_266
*1334 FILLER_1_273
*1335 FILLER_1_28
*1336 FILLER_1_280
*1337 FILLER_1_287
*1338 FILLER_1_294
*1339 FILLER_1_301
*1340 FILLER_1_308
*1341 FILLER_1_315
*1342 FILLER_1_322
*1343 FILLER_1_329
*1344 FILLER_1_336
*1345 FILLER_1_343
*1346 FILLER_1_35
*1347 FILLER_1_350
*1348 FILLER_1_357
*1349 FILLER_1_364
*1350 FILLER_1_371
*1351 FILLER_1_378
*1352 FILLER_1_385
*1353 FILLER_1_392
*1354 FILLER_1_399
*1355 FILLER_1_406
*1356 FILLER_1_413
*1357 FILLER_1_42
*1358 FILLER_1_420
*1359 FILLER_1_427
*1360 FILLER_1_434
*1361 FILLER_1_441
*1362 FILLER_1_448
*1363 FILLER_1_455
*1364 FILLER_1_462
*1365 FILLER_1_469
*1366 FILLER_1_476
*1367 FILLER_1_483
*1368 FILLER_1_49
*1369 FILLER_1_490
*1370 FILLER_1_497
*1371 FILLER_1_504
*1372 FILLER_1_511
*1373 FILLER_1_518
*1374 FILLER_1_525
*1375 FILLER_1_532
*1376 FILLER_1_539
*1377 FILLER_1_546
*1378 FILLER_1_553
*1379 FILLER_1_56
*1380 FILLER_1_560
*1381 FILLER_1_567
*1382 FILLER_1_574
*1383 FILLER_1_581
*1384 FILLER_1_588
*1385 FILLER_1_595
*1386 FILLER_1_602
*1387 FILLER_1_609
*1388 FILLER_1_616
*1389 FILLER_1_623
*1390 FILLER_1_63
*1391 FILLER_1_630
*1392 FILLER_1_637
*1393 FILLER_1_644
*1394 FILLER_1_651
*1395 FILLER_1_658
*1396 FILLER_1_665
*1397 FILLER_1_672
*1398 FILLER_1_679
*1399 FILLER_1_686
*1400 FILLER_1_693
*1401 FILLER_1_7
*1402 FILLER_1_70
*1403 FILLER_1_700
*1404 FILLER_1_707
*1405 FILLER_1_714
*1406 FILLER_1_721
*1407 FILLER_1_728
*1408 FILLER_1_735
*1409 FILLER_1_742
*1410 FILLER_1_749
*1411 FILLER_1_756
*1412 FILLER_1_77
*1413 FILLER_1_84
*1414 FILLER_1_91
*1415 FILLER_1_98
*1416 FILLER_20_0
*1417 FILLER_20_105
*1418 FILLER_20_112
*1419 FILLER_20_119
*1420 FILLER_20_126
*1421 FILLER_20_133
*1422 FILLER_20_14
*1423 FILLER_20_140
*1424 FILLER_20_147
*1425 FILLER_20_154
*1426 FILLER_20_161
*1427 FILLER_20_168
*1428 FILLER_20_175
*1429 FILLER_20_182
*1430 FILLER_20_189
*1431 FILLER_20_196
*1432 FILLER_20_203
*1433 FILLER_20_21
*1434 FILLER_20_210
*1435 FILLER_20_217
*1436 FILLER_20_224
*1437 FILLER_20_231
*1438 FILLER_20_238
*1439 FILLER_20_245
*1440 FILLER_20_252
*1441 FILLER_20_259
*1442 FILLER_20_266
*1443 FILLER_20_273
*1444 FILLER_20_28
*1445 FILLER_20_280
*1446 FILLER_20_287
*1447 FILLER_20_294
*1448 FILLER_20_301
*1449 FILLER_20_308
*1450 FILLER_20_315
*1451 FILLER_20_322
*1452 FILLER_20_329
*1453 FILLER_20_336
*1454 FILLER_20_343
*1455 FILLER_20_35
*1456 FILLER_20_350
*1457 FILLER_20_357
*1458 FILLER_20_364
*1459 FILLER_20_371
*1460 FILLER_20_378
*1461 FILLER_20_385
*1462 FILLER_20_392
*1463 FILLER_20_399
*1464 FILLER_20_406
*1465 FILLER_20_413
*1466 FILLER_20_42
*1467 FILLER_20_420
*1468 FILLER_20_427
*1469 FILLER_20_434
*1470 FILLER_20_441
*1471 FILLER_20_448
*1472 FILLER_20_455
*1473 FILLER_20_462
*1474 FILLER_20_469
*1475 FILLER_20_476
*1476 FILLER_20_483
*1477 FILLER_20_49
*1478 FILLER_20_490
*1479 FILLER_20_497
*1480 FILLER_20_504
*1481 FILLER_20_511
*1482 FILLER_20_518
*1483 FILLER_20_525
*1484 FILLER_20_532
*1485 FILLER_20_539
*1486 FILLER_20_546
*1487 FILLER_20_553
*1488 FILLER_20_56
*1489 FILLER_20_560
*1490 FILLER_20_567
*1491 FILLER_20_574
*1492 FILLER_20_581
*1493 FILLER_20_588
*1494 FILLER_20_595
*1495 FILLER_20_602
*1496 FILLER_20_609
*1497 FILLER_20_616
*1498 FILLER_20_623
*1499 FILLER_20_63
*1500 FILLER_20_630
*1501 FILLER_20_637
*1502 FILLER_20_644
*1503 FILLER_20_651
*1504 FILLER_20_658
*1505 FILLER_20_665
*1506 FILLER_20_672
*1507 FILLER_20_679
*1508 FILLER_20_686
*1509 FILLER_20_693
*1510 FILLER_20_7
*1511 FILLER_20_70
*1512 FILLER_20_700
*1513 FILLER_20_707
*1514 FILLER_20_714
*1515 FILLER_20_721
*1516 FILLER_20_728
*1517 FILLER_20_735
*1518 FILLER_20_742
*1519 FILLER_20_749
*1520 FILLER_20_756
*1521 FILLER_20_77
*1522 FILLER_20_84
*1523 FILLER_20_91
*1524 FILLER_20_98
*1525 FILLER_21_0
*1526 FILLER_21_105
*1527 FILLER_21_112
*1528 FILLER_21_119
*1529 FILLER_21_126
*1530 FILLER_21_133
*1531 FILLER_21_14
*1532 FILLER_21_140
*1533 FILLER_21_147
*1534 FILLER_21_154
*1535 FILLER_21_161
*1536 FILLER_21_168
*1537 FILLER_21_175
*1538 FILLER_21_182
*1539 FILLER_21_189
*1540 FILLER_21_196
*1541 FILLER_21_203
*1542 FILLER_21_21
*1543 FILLER_21_210
*1544 FILLER_21_217
*1545 FILLER_21_224
*1546 FILLER_21_231
*1547 FILLER_21_238
*1548 FILLER_21_245
*1549 FILLER_21_252
*1550 FILLER_21_259
*1551 FILLER_21_266
*1552 FILLER_21_273
*1553 FILLER_21_28
*1554 FILLER_21_280
*1555 FILLER_21_287
*1556 FILLER_21_294
*1557 FILLER_21_301
*1558 FILLER_21_308
*1559 FILLER_21_315
*1560 FILLER_21_322
*1561 FILLER_21_329
*1562 FILLER_21_336
*1563 FILLER_21_343
*1564 FILLER_21_35
*1565 FILLER_21_350
*1566 FILLER_21_357
*1567 FILLER_21_364
*1568 FILLER_21_371
*1569 FILLER_21_378
*1570 FILLER_21_385
*1571 FILLER_21_392
*1572 FILLER_21_399
*1573 FILLER_21_406
*1574 FILLER_21_413
*1575 FILLER_21_42
*1576 FILLER_21_420
*1577 FILLER_21_427
*1578 FILLER_21_434
*1579 FILLER_21_441
*1580 FILLER_21_448