*SPEF "ieee 1481-1999"
*DESIGN "FMD_QNC_Padframe24"
*DATE "16:42:31 Tuesday September 09, 2025"
*VENDOR "The OpenROAD Project"
*PROGRAM "OpenROAD"
*VERSION "341650e72dad0dc8571822ff8c5d9c5e365327f7"
*DESIGN_FLOW "NAME_SCOPE LOCAL" "PIN_CAP NONE"
*DIVIDER /
*DELIMITER :
*BUS_DELIMITER []
*T_UNIT 1 NS
*C_UNIT 1 PF
*R_UNIT 1 OHM
*L_UNIT 1 HENRY

*NAME_MAP
*7 ui_PAD[0]
*8 ui_PAD[1]
*9 ui_PAD[2]
*10 ui_PAD[3]
*11 ui_PAD[4]
*12 ui_PAD[5]
*13 ui_PAD[6]
*14 ui_PAD[7]
*15 ui_PAD[8]
*16 ui_PAD[9]
*17 uo_PAD[0]
*18 uo_PAD[1]
*19 uo_PAD[2]
*20 uo_PAD[3]
*21 uo_PAD[4]
*22 uo_PAD[5]
*23 uo_PAD[6]
*24 uo_PAD[7]
*25 uo_PAD[8]
*26 uo_PAD[9]
*29 ui_PAD2CORE\[0\]
*30 ui_PAD2CORE\[1\]
*31 ui_PAD2CORE\[2\]
*32 ui_PAD2CORE\[3\]
*33 ui_PAD2CORE\[4\]
*34 ui_PAD2CORE\[5\]
*35 ui_PAD2CORE\[6\]
*36 ui_PAD2CORE\[7\]
*37 ui_PAD2CORE\[8\]
*38 ui_PAD2CORE\[9\]
*39 FILLER_0_0
*40 FILLER_0_105
*41 FILLER_0_112
*42 FILLER_0_119
*43 FILLER_0_126
*44 FILLER_0_133
*45 FILLER_0_14
*46 FILLER_0_140
*47 FILLER_0_147
*48 FILLER_0_154
*49 FILLER_0_161
*50 FILLER_0_168
*51 FILLER_0_175
*52 FILLER_0_182
*53 FILLER_0_189
*54 FILLER_0_196
*55 FILLER_0_203
*56 FILLER_0_21
*57 FILLER_0_210
*58 FILLER_0_217
*59 FILLER_0_224
*60 FILLER_0_231
*61 FILLER_0_238
*62 FILLER_0_245
*63 FILLER_0_252
*64 FILLER_0_259
*65 FILLER_0_266
*66 FILLER_0_273
*67 FILLER_0_28
*68 FILLER_0_280
*69 FILLER_0_287
*70 FILLER_0_294
*71 FILLER_0_301
*72 FILLER_0_308
*73 FILLER_0_315
*74 FILLER_0_322
*75 FILLER_0_329
*76 FILLER_0_336
*77 FILLER_0_343
*78 FILLER_0_35
*79 FILLER_0_350
*80 FILLER_0_357
*81 FILLER_0_364
*82 FILLER_0_371
*83 FILLER_0_378
*84 FILLER_0_385
*85 FILLER_0_392
*86 FILLER_0_399
*87 FILLER_0_406
*88 FILLER_0_413
*89 FILLER_0_42
*90 FILLER_0_420
*91 FILLER_0_427
*92 FILLER_0_434
*93 FILLER_0_441
*94 FILLER_0_448
*95 FILLER_0_455
*96 FILLER_0_462
*97 FILLER_0_469
*98 FILLER_0_476
*99 FILLER_0_483
*100 FILLER_0_49
*101 FILLER_0_490
*102 FILLER_0_497
*103 FILLER_0_504
*104 FILLER_0_511
*105 FILLER_0_518
*106 FILLER_0_525
*107 FILLER_0_532
*108 FILLER_0_539
*109 FILLER_0_546
*110 FILLER_0_553
*111 FILLER_0_56
*112 FILLER_0_560
*113 FILLER_0_567
*114 FILLER_0_574
*115 FILLER_0_581
*116 FILLER_0_588
*117 FILLER_0_595
*118 FILLER_0_602
*119 FILLER_0_609
*120 FILLER_0_616
*121 FILLER_0_623
*122 FILLER_0_63
*123 FILLER_0_630
*124 FILLER_0_637
*125 FILLER_0_644
*126 FILLER_0_651
*127 FILLER_0_658
*128 FILLER_0_665
*129 FILLER_0_672
*130 FILLER_0_679
*131 FILLER_0_686
*132 FILLER_0_693
*133 FILLER_0_7
*134 FILLER_0_70
*135 FILLER_0_700
*136 FILLER_0_707
*137 FILLER_0_714
*138 FILLER_0_721
*139 FILLER_0_728
*140 FILLER_0_735
*141 FILLER_0_742
*142 FILLER_0_749
*143 FILLER_0_756
*144 FILLER_0_763
*145 FILLER_0_77
*146 FILLER_0_770
*147 FILLER_0_777
*148 FILLER_0_784
*149 FILLER_0_791
*150 FILLER_0_798
*151 FILLER_0_805
*152 FILLER_0_812
*153 FILLER_0_819
*154 FILLER_0_826
*155 FILLER_0_833
*156 FILLER_0_84
*157 FILLER_0_840
*158 FILLER_0_91
*159 FILLER_0_98
*160 FILLER_100_0
*161 FILLER_100_105
*162 FILLER_100_112
*163 FILLER_100_119
*164 FILLER_100_126
*165 FILLER_100_133
*166 FILLER_100_14
*167 FILLER_100_140
*168 FILLER_100_147
*169 FILLER_100_154
*170 FILLER_100_161
*171 FILLER_100_168
*172 FILLER_100_175
*173 FILLER_100_182
*174 FILLER_100_189
*175 FILLER_100_196
*176 FILLER_100_203
*177 FILLER_100_21
*178 FILLER_100_210
*179 FILLER_100_217
*180 FILLER_100_224
*181 FILLER_100_231
*182 FILLER_100_238
*183 FILLER_100_245
*184 FILLER_100_252
*185 FILLER_100_259
*186 FILLER_100_266
*187 FILLER_100_273
*188 FILLER_100_28
*189 FILLER_100_280
*190 FILLER_100_287
*191 FILLER_100_294
*192 FILLER_100_301
*193 FILLER_100_308
*194 FILLER_100_315
*195 FILLER_100_322
*196 FILLER_100_329
*197 FILLER_100_336
*198 FILLER_100_343
*199 FILLER_100_35
*200 FILLER_100_350
*201 FILLER_100_357
*202 FILLER_100_364
*203 FILLER_100_371
*204 FILLER_100_378
*205 FILLER_100_385
*206 FILLER_100_392
*207 FILLER_100_399
*208 FILLER_100_406
*209 FILLER_100_413
*210 FILLER_100_42
*211 FILLER_100_420
*212 FILLER_100_427
*213 FILLER_100_434
*214 FILLER_100_441
*215 FILLER_100_448
*216 FILLER_100_455
*217 FILLER_100_462
*218 FILLER_100_469
*219 FILLER_100_476
*220 FILLER_100_483
*221 FILLER_100_49
*222 FILLER_100_490
*223 FILLER_100_497
*224 FILLER_100_504
*225 FILLER_100_511
*226 FILLER_100_518
*227 FILLER_100_525
*228 FILLER_100_532
*229 FILLER_100_539
*230 FILLER_100_546
*231 FILLER_100_553
*232 FILLER_100_56
*233 FILLER_100_560
*234 FILLER_100_567
*235 FILLER_100_574
*236 FILLER_100_581
*237 FILLER_100_588
*238 FILLER_100_595
*239 FILLER_100_602
*240 FILLER_100_609
*241 FILLER_100_616
*242 FILLER_100_623
*243 FILLER_100_63
*244 FILLER_100_630
*245 FILLER_100_637
*246 FILLER_100_644
*247 FILLER_100_651
*248 FILLER_100_658
*249 FILLER_100_665
*250 FILLER_100_672
*251 FILLER_100_679
*252 FILLER_100_686
*253 FILLER_100_693
*254 FILLER_100_7
*255 FILLER_100_70
*256 FILLER_100_700
*257 FILLER_100_707
*258 FILLER_100_714
*259 FILLER_100_721
*260 FILLER_100_728
*261 FILLER_100_735
*262 FILLER_100_742
*263 FILLER_100_749
*264 FILLER_100_756
*265 FILLER_100_763
*266 FILLER_100_77
*267 FILLER_100_770
*268 FILLER_100_777
*269 FILLER_100_784
*270 FILLER_100_791
*271 FILLER_100_798
*272 FILLER_100_805
*273 FILLER_100_812
*274 FILLER_100_819
*275 FILLER_100_826
*276 FILLER_100_833
*277 FILLER_100_84
*278 FILLER_100_840
*279 FILLER_100_91
*280 FILLER_100_98
*281 FILLER_101_0
*282 FILLER_101_105
*283 FILLER_101_112
*284 FILLER_101_119
*285 FILLER_101_126
*286 FILLER_101_133
*287 FILLER_101_14
*288 FILLER_101_140
*289 FILLER_101_147
*290 FILLER_101_154
*291 FILLER_101_161
*292 FILLER_101_168
*293 FILLER_101_175
*294 FILLER_101_182
*295 FILLER_101_189
*296 FILLER_101_196
*297 FILLER_101_203
*298 FILLER_101_21
*299 FILLER_101_210
*300 FILLER_101_217
*301 FILLER_101_224
*302 FILLER_101_231
*303 FILLER_101_238
*304 FILLER_101_245
*305 FILLER_101_252
*306 FILLER_101_259
*307 FILLER_101_266
*308 FILLER_101_273
*309 FILLER_101_28
*310 FILLER_101_280
*311 FILLER_101_287
*312 FILLER_101_294
*313 FILLER_101_301
*314 FILLER_101_308
*315 FILLER_101_315
*316 FILLER_101_322
*317 FILLER_101_329
*318 FILLER_101_336
*319 FILLER_101_343
*320 FILLER_101_35
*321 FILLER_101_350
*322 FILLER_101_357
*323 FILLER_101_364
*324 FILLER_101_371
*325 FILLER_101_378
*326 FILLER_101_385
*327 FILLER_101_392
*328 FILLER_101_399
*329 FILLER_101_406
*330 FILLER_101_413
*331 FILLER_101_42
*332 FILLER_101_420
*333 FILLER_101_427
*334 FILLER_101_434
*335 FILLER_101_441
*336 FILLER_101_448
*337 FILLER_101_455
*338 FILLER_101_462
*339 FILLER_101_469
*340 FILLER_101_476
*341 FILLER_101_483
*342 FILLER_101_49
*343 FILLER_101_490
*344 FILLER_101_497
*345 FILLER_101_504
*346 FILLER_101_511
*347 FILLER_101_518
*348 FILLER_101_525
*349 FILLER_101_532
*350 FILLER_101_539
*351 FILLER_101_546
*352 FILLER_101_553
*353 FILLER_101_56
*354 FILLER_101_560
*355 FILLER_101_567
*356 FILLER_101_574
*357 FILLER_101_581
*358 FILLER_101_588
*359 FILLER_101_595
*360 FILLER_101_602
*361 FILLER_101_609
*362 FILLER_101_616
*363 FILLER_101_623
*364 FILLER_101_63
*365 FILLER_101_630
*366 FILLER_101_637
*367 FILLER_101_644
*368 FILLER_101_651
*369 FILLER_101_658
*370 FILLER_101_665
*371 FILLER_101_672
*372 FILLER_101_679
*373 FILLER_101_686
*374 FILLER_101_693
*375 FILLER_101_7
*376 FILLER_101_70
*377 FILLER_101_700
*378 FILLER_101_707
*379 FILLER_101_714
*380 FILLER_101_721
*381 FILLER_101_728
*382 FILLER_101_735
*383 FILLER_101_742
*384 FILLER_101_749
*385 FILLER_101_756
*386 FILLER_101_763
*387 FILLER_101_77
*388 FILLER_101_770
*389 FILLER_101_777
*390 FILLER_101_784
*391 FILLER_101_791
*392 FILLER_101_798
*393 FILLER_101_805
*394 FILLER_101_812
*395 FILLER_101_819
*396 FILLER_101_826
*397 FILLER_101_833
*398 FILLER_101_84
*399 FILLER_101_840
*400 FILLER_101_91
*401 FILLER_101_98
*402 FILLER_102_0
*403 FILLER_102_105
*404 FILLER_102_112
*405 FILLER_102_119
*406 FILLER_102_126
*407 FILLER_102_133
*408 FILLER_102_14
*409 FILLER_102_140
*410 FILLER_102_147
*411 FILLER_102_154
*412 FILLER_102_161
*413 FILLER_102_168
*414 FILLER_102_175
*415 FILLER_102_182
*416 FILLER_102_189
*417 FILLER_102_196
*418 FILLER_102_203
*419 FILLER_102_21
*420 FILLER_102_210
*421 FILLER_102_217
*422 FILLER_102_224
*423 FILLER_102_231
*424 FILLER_102_238
*425 FILLER_102_245
*426 FILLER_102_252
*427 FILLER_102_259
*428 FILLER_102_266
*429 FILLER_102_273
*430 FILLER_102_28
*431 FILLER_102_280
*432 FILLER_102_287
*433 FILLER_102_294
*434 FILLER_102_301
*435 FILLER_102_308
*436 FILLER_102_315
*437 FILLER_102_322
*438 FILLER_102_329
*439 FILLER_102_336
*440 FILLER_102_343
*441 FILLER_102_35
*442 FILLER_102_350
*443 FILLER_102_357
*444 FILLER_102_364
*445 FILLER_102_371
*446 FILLER_102_378
*447 FILLER_102_385
*448 FILLER_102_392
*449 FILLER_102_399
*450 FILLER_102_406
*451 FILLER_102_413
*452 FILLER_102_42
*453 FILLER_102_420
*454 FILLER_102_427
*455 FILLER_102_434
*456 FILLER_102_441
*457 FILLER_102_448
*458 FILLER_102_455
*459 FILLER_102_462
*460 FILLER_102_469
*461 FILLER_102_476
*462 FILLER_102_483
*463 FILLER_102_49
*464 FILLER_102_490
*465 FILLER_102_497
*466 FILLER_102_504
*467 FILLER_102_511
*468 FILLER_102_518
*469 FILLER_102_525
*470 FILLER_102_532
*471 FILLER_102_539
*472 FILLER_102_546
*473 FILLER_102_553
*474 FILLER_102_56
*475 FILLER_102_560
*476 FILLER_102_567
*477 FILLER_102_574
*478 FILLER_102_581
*479 FILLER_102_588
*480 FILLER_102_595
*481 FILLER_102_602
*482 FILLER_102_609
*483 FILLER_102_616
*484 FILLER_102_623
*485 FILLER_102_63
*486 FILLER_102_630
*487 FILLER_102_637
*488 FILLER_102_644
*489 FILLER_102_651
*490 FILLER_102_658
*491 FILLER_102_665
*492 FILLER_102_672
*493 FILLER_102_679
*494 FILLER_102_686
*495 FILLER_102_693
*496 FILLER_102_7
*497 FILLER_102_70
*498 FILLER_102_700
*499 FILLER_102_707
*500 FILLER_102_714
*501 FILLER_102_721
*502 FILLER_102_728
*503 FILLER_102_735
*504 FILLER_102_742
*505 FILLER_102_749
*506 FILLER_102_756
*507 FILLER_102_763
*508 FILLER_102_77
*509 FILLER_102_770
*510 FILLER_102_777
*511 FILLER_102_784
*512 FILLER_102_791
*513 FILLER_102_798
*514 FILLER_102_805
*515 FILLER_102_812
*516 FILLER_102_819
*517 FILLER_102_826
*518 FILLER_102_833
*519 FILLER_102_84
*520 FILLER_102_840
*521 FILLER_102_91
*522 FILLER_102_98
*523 FILLER_103_0
*524 FILLER_103_105
*525 FILLER_103_112
*526 FILLER_103_119
*527 FILLER_103_126
*528 FILLER_103_133
*529 FILLER_103_14
*530 FILLER_103_140
*531 FILLER_103_147
*532 FILLER_103_154
*533 FILLER_103_161
*534 FILLER_103_168
*535 FILLER_103_175
*536 FILLER_103_182
*537 FILLER_103_189
*538 FILLER_103_196
*539 FILLER_103_203
*540 FILLER_103_21
*541 FILLER_103_210
*542 FILLER_103_217
*543 FILLER_103_224
*544 FILLER_103_231
*545 FILLER_103_238
*546 FILLER_103_245
*547 FILLER_103_252
*548 FILLER_103_259
*549 FILLER_103_266
*550 FILLER_103_273
*551 FILLER_103_28
*552 FILLER_103_280
*553 FILLER_103_287
*554 FILLER_103_294
*555 FILLER_103_301
*556 FILLER_103_308
*557 FILLER_103_315
*558 FILLER_103_322
*559 FILLER_103_329
*560 FILLER_103_336
*561 FILLER_103_343
*562 FILLER_103_35
*563 FILLER_103_350
*564 FILLER_103_357
*565 FILLER_103_364
*566 FILLER_103_371
*567 FILLER_103_378
*568 FILLER_103_385
*569 FILLER_103_392
*570 FILLER_103_399
*571 FILLER_103_406
*572 FILLER_103_413
*573 FILLER_103_42
*574 FILLER_103_420
*575 FILLER_103_427
*576 FILLER_103_434
*577 FILLER_103_441
*578 FILLER_103_448
*579 FILLER_103_455
*580 FILLER_103_462
*581 FILLER_103_469
*582 FILLER_103_476
*583 FILLER_103_483
*584 FILLER_103_49
*585 FILLER_103_490
*586 FILLER_103_497
*587 FILLER_103_504
*588 FILLER_103_511
*589 FILLER_103_518
*590 FILLER_103_525
*591 FILLER_103_532
*592 FILLER_103_539
*593 FILLER_103_546
*594 FILLER_103_553
*595 FILLER_103_56
*596 FILLER_103_560
*597 FILLER_103_567
*598 FILLER_103_574
*599 FILLER_103_581
*600 FILLER_103_588
*601 FILLER_103_595
*602 FILLER_103_602
*603 FILLER_103_609
*604 FILLER_103_616
*605 FILLER_103_623
*606 FILLER_103_63
*607 FILLER_103_630
*608 FILLER_103_637
*609 FILLER_103_644
*610 FILLER_103_651
*611 FILLER_103_658
*612 FILLER_103_665
*613 FILLER_103_672
*614 FILLER_103_679
*615 FILLER_103_686
*616 FILLER_103_693
*617 FILLER_103_7
*618 FILLER_103_70
*619 FILLER_103_700
*620 FILLER_103_707
*621 FILLER_103_714
*622 FILLER_103_721
*623 FILLER_103_728
*624 FILLER_103_735
*625 FILLER_103_742
*626 FILLER_103_749
*627 FILLER_103_756
*628 FILLER_103_763
*629 FILLER_103_77
*630 FILLER_103_770
*631 FILLER_103_777
*632 FILLER_103_784
*633 FILLER_103_791
*634 FILLER_103_798
*635 FILLER_103_805
*636 FILLER_103_812
*637 FILLER_103_819
*638 FILLER_103_826
*639 FILLER_103_833
*640 FILLER_103_84
*641 FILLER_103_840
*642 FILLER_103_91
*643 FILLER_103_98
*644 FILLER_104_0
*645 FILLER_104_105
*646 FILLER_104_112
*647 FILLER_104_119
*648 FILLER_104_126
*649 FILLER_104_133
*650 FILLER_104_14
*651 FILLER_104_140
*652 FILLER_104_147
*653 FILLER_104_154
*654 FILLER_104_161
*655 FILLER_104_168
*656 FILLER_104_175
*657 FILLER_104_182
*658 FILLER_104_189
*659 FILLER_104_196
*660 FILLER_104_203
*661 FILLER_104_21
*662 FILLER_104_210
*663 FILLER_104_217
*664 FILLER_104_224
*665 FILLER_104_231
*666 FILLER_104_238
*667 FILLER_104_245
*668 FILLER_104_252
*669 FILLER_104_259
*670 FILLER_104_266
*671 FILLER_104_273
*672 FILLER_104_28
*673 FILLER_104_280
*674 FILLER_104_287
*675 FILLER_104_294
*676 FILLER_104_301
*677 FILLER_104_308
*678 FILLER_104_315
*679 FILLER_104_322
*680 FILLER_104_329
*681 FILLER_104_336
*682 FILLER_104_343
*683 FILLER_104_35
*684 FILLER_104_350
*685 FILLER_104_357
*686 FILLER_104_364
*687 FILLER_104_371
*688 FILLER_104_378
*689 FILLER_104_385
*690 FILLER_104_392
*691 FILLER_104_399
*692 FILLER_104_406
*693 FILLER_104_413
*694 FILLER_104_42
*695 FILLER_104_420
*696 FILLER_104_427
*697 FILLER_104_434
*698 FILLER_104_441
*699 FILLER_104_448
*700 FILLER_104_455
*701 FILLER_104_462
*702 FILLER_104_469
*703 FILLER_104_476
*704 FILLER_104_483
*705 FILLER_104_49
*706 FILLER_104_490
*707 FILLER_104_497
*708 FILLER_104_504
*709 FILLER_104_511
*710 FILLER_104_518
*711 FILLER_104_525
*712 FILLER_104_532
*713 FILLER_104_539
*714 FILLER_104_546
*715 FILLER_104_553
*716 FILLER_104_56
*717 FILLER_104_560
*718 FILLER_104_567
*719 FILLER_104_574
*720 FILLER_104_581
*721 FILLER_104_588
*722 FILLER_104_595
*723 FILLER_104_602
*724 FILLER_104_609
*725 FILLER_104_616
*726 FILLER_104_623
*727 FILLER_104_63
*728 FILLER_104_630
*729 FILLER_104_637
*730 FILLER_104_644
*731 FILLER_104_651
*732 FILLER_104_658
*733 FILLER_104_665
*734 FILLER_104_672
*735 FILLER_104_679
*736 FILLER_104_686
*737 FILLER_104_693
*738 FILLER_104_7
*739 FILLER_104_70
*740 FILLER_104_700
*741 FILLER_104_707
*742 FILLER_104_714
*743 FILLER_104_721
*744 FILLER_104_728
*745 FILLER_104_735
*746 FILLER_104_742
*747 FILLER_104_749
*748 FILLER_104_756
*749 FILLER_104_763
*750 FILLER_104_77
*751 FILLER_104_770
*752 FILLER_104_777
*753 FILLER_104_784
*754 FILLER_104_791
*755 FILLER_104_798
*756 FILLER_104_805
*757 FILLER_104_812
*758 FILLER_104_819
*759 FILLER_104_826
*760 FILLER_104_833
*761 FILLER_104_84
*762 FILLER_104_840
*763 FILLER_104_91
*764 FILLER_104_98
*765 FILLER_105_0
*766 FILLER_105_105
*767 FILLER_105_112
*768 FILLER_105_119
*769 FILLER_105_126
*770 FILLER_105_133
*771 FILLER_105_14
*772 FILLER_105_140
*773 FILLER_105_147
*774 FILLER_105_154
*775 FILLER_105_161
*776 FILLER_105_168
*777 FILLER_105_175
*778 FILLER_105_182
*779 FILLER_105_189
*780 FILLER_105_196
*781 FILLER_105_203
*782 FILLER_105_21
*783 FILLER_105_210
*784 FILLER_105_217
*785 FILLER_105_224
*786 FILLER_105_231
*787 FILLER_105_238
*788 FILLER_105_245
*789 FILLER_105_252
*790 FILLER_105_259
*791 FILLER_105_266
*792 FILLER_105_273
*793 FILLER_105_28
*794 FILLER_105_280
*795 FILLER_105_287
*796 FILLER_105_294
*797 FILLER_105_301
*798 FILLER_105_308
*799 FILLER_105_315
*800 FILLER_105_322
*801 FILLER_105_329
*802 FILLER_105_336
*803 FILLER_105_343
*804 FILLER_105_35
*805 FILLER_105_350
*806 FILLER_105_357
*807 FILLER_105_364
*808 FILLER_105_371
*809 FILLER_105_378
*810 FILLER_105_385
*811 FILLER_105_392
*812 FILLER_105_399
*813 FILLER_105_406
*814 FILLER_105_413
*815 FILLER_105_42
*816 FILLER_105_420
*817 FILLER_105_427
*818 FILLER_105_434
*819 FILLER_105_441
*820 FILLER_105_448
*821 FILLER_105_455
*822 FILLER_105_462
*823 FILLER_105_469
*824 FILLER_105_476
*825 FILLER_105_483
*826 FILLER_105_49
*827 FILLER_105_490
*828 FILLER_105_497
*829 FILLER_105_504
*830 FILLER_105_511
*831 FILLER_105_518
*832 FILLER_105_525
*833 FILLER_105_532
*834 FILLER_105_539
*835 FILLER_105_546
*836 FILLER_105_553
*837 FILLER_105_56
*838 FILLER_105_560
*839 FILLER_105_567
*840 FILLER_105_574
*841 FILLER_105_581
*842 FILLER_105_588
*843 FILLER_105_595
*844 FILLER_105_602
*845 FILLER_105_609
*846 FILLER_105_616
*847 FILLER_105_623
*848 FILLER_105_63
*849 FILLER_105_630
*850 FILLER_105_637
*851 FILLER_105_644
*852 FILLER_105_651
*853 FILLER_105_658
*854 FILLER_105_665
*855 FILLER_105_672
*856 FILLER_105_679
*857 FILLER_105_686
*858 FILLER_105_693
*859 FILLER_105_7
*860 FILLER_105_70
*861 FILLER_105_700
*862 FILLER_105_707
*863 FILLER_105_714
*864 FILLER_105_721
*865 FILLER_105_728
*866 FILLER_105_735
*867 FILLER_105_742
*868 FILLER_105_749
*869 FILLER_105_756
*870 FILLER_105_763
*871 FILLER_105_77
*872 FILLER_105_770
*873 FILLER_105_777
*874 FILLER_105_784
*875 FILLER_105_791
*876 FILLER_105_798
*877 FILLER_105_805
*878 FILLER_105_812
*879 FILLER_105_819
*880 FILLER_105_826
*881 FILLER_105_833
*882 FILLER_105_84
*883 FILLER_105_840
*884 FILLER_105_91
*885 FILLER_105_98
*886 FILLER_10_0
*887 FILLER_10_105
*888 FILLER_10_112
*889 FILLER_10_119
*890 FILLER_10_126
*891 FILLER_10_133
*892 FILLER_10_14
*893 FILLER_10_140
*894 FILLER_10_147
*895 FILLER_10_154
*896 FILLER_10_161
*897 FILLER_10_168
*898 FILLER_10_175
*899 FILLER_10_182
*900 FILLER_10_189
*901 FILLER_10_196
*902 FILLER_10_203
*903 FILLER_10_21
*904 FILLER_10_210
*905 FILLER_10_217
*906 FILLER_10_224
*907 FILLER_10_231
*908 FILLER_10_238
*909 FILLER_10_245
*910 FILLER_10_252
*911 FILLER_10_259
*912 FILLER_10_266
*913 FILLER_10_273
*914 FILLER_10_28
*915 FILLER_10_280
*916 FILLER_10_287
*917 FILLER_10_294
*918 FILLER_10_301
*919 FILLER_10_308
*920 FILLER_10_315
*921 FILLER_10_322
*922 FILLER_10_329
*923 FILLER_10_336
*924 FILLER_10_343
*925 FILLER_10_35
*926 FILLER_10_350
*927 FILLER_10_357
*928 FILLER_10_364
*929 FILLER_10_371
*930 FILLER_10_378
*931 FILLER_10_385
*932 FILLER_10_392
*933 FILLER_10_399
*934 FILLER_10_406
*935 FILLER_10_413
*936 FILLER_10_42
*937 FILLER_10_420
*938 FILLER_10_427
*939 FILLER_10_434
*940 FILLER_10_441
*941 FILLER_10_448
*942 FILLER_10_455
*943 FILLER_10_462
*944 FILLER_10_469
*945 FILLER_10_476
*946 FILLER_10_483
*947 FILLER_10_49
*948 FILLER_10_490
*949 FILLER_10_497
*950 FILLER_10_504
*951 FILLER_10_511
*952 FILLER_10_518
*953 FILLER_10_525
*954 FILLER_10_532
*955 FILLER_10_539
*956 FILLER_10_546
*957 FILLER_10_553
*958 FILLER_10_56
*959 FILLER_10_560
*960 FILLER_10_567
*961 FILLER_10_574
*962 FILLER_10_581
*963 FILLER_10_588
*964 FILLER_10_595
*965 FILLER_10_602
*966 FILLER_10_609
*967 FILLER_10_616
*968 FILLER_10_623
*969 FILLER_10_63
*970 FILLER_10_630
*971 FILLER_10_637
*972 FILLER_10_644
*973 FILLER_10_651
*974 FILLER_10_658
*975 FILLER_10_665
*976 FILLER_10_672
*977 FILLER_10_679
*978 FILLER_10_686
*979 FILLER_10_693
*980 FILLER_10_7
*981 FILLER_10_70
*982 FILLER_10_700
*983 FILLER_10_707
*984 FILLER_10_714
*985 FILLER_10_721
*986 FILLER_10_728
*987 FILLER_10_735
*988 FILLER_10_742
*989 FILLER_10_749
*990 FILLER_10_756
*991 FILLER_10_763
*992 FILLER_10_77
*993 FILLER_10_770
*994 FILLER_10_777
*995 FILLER_10_784
*996 FILLER_10_791
*997 FILLER_10_798
*998 FILLER_10_805
*999 FILLER_10_812
*1000 FILLER_10_819
*1001 FILLER_10_826
*1002 FILLER_10_833
*1003 FILLER_10_84
*1004 FILLER_10_840
*1005 FILLER_10_91
*1006 FILLER_10_98
*1007 FILLER_11_0
*1008 FILLER_11_105
*1009 FILLER_11_112
*1010 FILLER_11_119
*1011 FILLER_11_126
*1012 FILLER_11_133
*1013 FILLER_11_14
*1014 FILLER_11_140
*1015 FILLER_11_147
*1016 FILLER_11_154
*1017 FILLER_11_161
*1018 FILLER_11_168
*1019 FILLER_11_175
*1020 FILLER_11_182
*1021 FILLER_11_189
*1022 FILLER_11_196
*1023 FILLER_11_203
*1024 FILLER_11_21
*1025 FILLER_11_210
*1026 FILLER_11_217
*1027 FILLER_11_224
*1028 FILLER_11_231
*1029 FILLER_11_238
*1030 FILLER_11_245
*1031 FILLER_11_252
*1032 FILLER_11_259
*1033 FILLER_11_266
*1034 FILLER_11_273
*1035 FILLER_11_28
*1036 FILLER_11_280
*1037 FILLER_11_287
*1038 FILLER_11_294
*1039 FILLER_11_301
*1040 FILLER_11_308
*1041 FILLER_11_315
*1042 FILLER_11_322
*1043 FILLER_11_329
*1044 FILLER_11_336
*1045 FILLER_11_343
*1046 FILLER_11_35
*1047 FILLER_11_350
*1048 FILLER_11_357
*1049 FILLER_11_364
*1050 FILLER_11_371
*1051 FILLER_11_378
*1052 FILLER_11_385
*1053 FILLER_11_392
*1054 FILLER_11_399
*1055 FILLER_11_406
*1056 FILLER_11_413
*1057 FILLER_11_42
*1058 FILLER_11_420
*1059 FILLER_11_427
*1060 FILLER_11_434
*1061 FILLER_11_441
*1062 FILLER_11_448
*1063 FILLER_11_455
*1064 FILLER_11_462
*1065 FILLER_11_469
*1066 FILLER_11_476
*1067 FILLER_11_483
*1068 FILLER_11_49
*1069 FILLER_11_490
*1070 FILLER_11_497
*1071 FILLER_11_504
*1072 FILLER_11_511
*1073 FILLER_11_518
*1074 FILLER_11_525
*1075 FILLER_11_532
*1076 FILLER_11_539
*1077 FILLER_11_546
*1078 FILLER_11_553
*1079 FILLER_11_56
*1080 FILLER_11_560
*1081 FILLER_11_567
*1082 FILLER_11_574
*1083 FILLER_11_581
*1084 FILLER_11_588
*1085 FILLER_11_595
*1086 FILLER_11_602
*1087 FILLER_11_609
*1088 FILLER_11_616
*1089 FILLER_11_623
*1090 FILLER_11_63
*1091 FILLER_11_630
*1092 FILLER_11_637
*1093 FILLER_11_644
*1094 FILLER_11_651
*1095 FILLER_11_658
*1096 FILLER_11_665
*1097 FILLER_11_672
*1098 FILLER_11_679
*1099 FILLER_11_686
*1100 FILLER_11_693
*1101 FILLER_11_7
*1102 FILLER_11_70
*1103 FILLER_11_700
*1104 FILLER_11_707
*1105 FILLER_11_714
*1106 FILLER_11_721
*1107 FILLER_11_728
*1108 FILLER_11_735
*1109 FILLER_11_742
*1110 FILLER_11_749
*1111 FILLER_11_756
*1112 FILLER_11_763
*1113 FILLER_11_77
*1114 FILLER_11_770
*1115 FILLER_11_777
*1116 FILLER_11_784
*1117 FILLER_11_791
*1118 FILLER_11_798
*1119 FILLER_11_805
*1120 FILLER_11_812
*1121 FILLER_11_819
*1122 FILLER_11_826
*1123 FILLER_11_833
*1124 FILLER_11_84
*1125 FILLER_11_840
*1126 FILLER_11_91
*1127 FILLER_11_98
*1128 FILLER_12_0
*1129 FILLER_12_105
*1130 FILLER_12_112
*1131 FILLER_12_119
*1132 FILLER_12_126
*1133 FILLER_12_133
*1134 FILLER_12_14
*1135 FILLER_12_140
*1136 FILLER_12_147
*1137 FILLER_12_154
*1138 FILLER_12_161
*1139 FILLER_12_168
*1140 FILLER_12_175
*1141 FILLER_12_182
*1142 FILLER_12_189
*1143 FILLER_12_196
*1144 FILLER_12_203
*1145 FILLER_12_21
*1146 FILLER_12_210
*1147 FILLER_12_217
*1148 FILLER_12_224
*1149 FILLER_12_231
*1150 FILLER_12_238
*1151 FILLER_12_245
*1152 FILLER_12_252
*1153 FILLER_12_259
*1154 FILLER_12_266
*1155 FILLER_12_273
*1156 FILLER_12_28
*1157 FILLER_12_280
*1158 FILLER_12_287
*1159 FILLER_12_294
*1160 FILLER_12_301
*1161 FILLER_12_308
*1162 FILLER_12_315
*1163 FILLER_12_322
*1164 FILLER_12_329
*1165 FILLER_12_336
*1166 FILLER_12_343
*1167 FILLER_12_35
*1168 FILLER_12_350
*1169 FILLER_12_357
*1170 FILLER_12_364
*1171 FILLER_12_371
*1172 FILLER_12_378
*1173 FILLER_12_385
*1174 FILLER_12_392
*1175 FILLER_12_399
*1176 FILLER_12_406
*1177 FILLER_12_413
*1178 FILLER_12_42
*1179 FILLER_12_420
*1180 FILLER_12_427
*1181 FILLER_12_434
*1182 FILLER_12_441
*1183 FILLER_12_448
*1184 FILLER_12_455
*1185 FILLER_12_462
*1186 FILLER_12_469
*1187 FILLER_12_476
*1188 FILLER_12_483
*1189 FILLER_12_49
*1190 FILLER_12_490
*1191 FILLER_12_497
*1192 FILLER_12_504
*1193 FILLER_12_511
*1194 FILLER_12_518
*1195 FILLER_12_525
*1196 FILLER_12_532
*1197 FILLER_12_539
*1198 FILLER_12_546
*1199 FILLER_12_553
*1200 FILLER_12_56
*1201 FILLER_12_560
*1202 FILLER_12_567
*1203 FILLER_12_574
*1204 FILLER_12_581
*1205 FILLER_12_588
*1206 FILLER_12_595
*1207 FILLER_12_602
*1208 FILLER_12_609
*1209 FILLER_12_616
*1210 FILLER_12_623
*1211 FILLER_12_63
*1212 FILLER_12_630
*1213 FILLER_12_637
*1214 FILLER_12_644
*1215 FILLER_12_651
*1216 FILLER_12_658
*1217 FILLER_12_665
*1218 FILLER_12_672
*1219 FILLER_12_679
*1220 FILLER_12_686
*1221 FILLER_12_693
*1222 FILLER_12_7
*1223 FILLER_12_70
*1224 FILLER_12_700
*1225 FILLER_12_707
*1226 FILLER_12_714
*1227 FILLER_12_721
*1228 FILLER_12_728
*1229 FILLER_12_735
*1230 FILLER_12_742
*1231 FILLER_12_749
*1232 FILLER_12_756
*1233 FILLER_12_763
*1234 FILLER_12_77
*1235 FILLER_12_770
*1236 FILLER_12_777
*1237 FILLER_12_784
*1238 FILLER_12_791
*1239 FILLER_12_798
*1240 FILLER_12_805
*1241 FILLER_12_812
*1242 FILLER_12_819
*1243 FILLER_12_826
*1244 FILLER_12_833
*1245 FILLER_12_84
*1246 FILLER_12_840
*1247 FILLER_12_91
*1248 FILLER_12_98
*1249 FILLER_13_0
*1250 FILLER_13_105
*1251 FILLER_13_112
*1252 FILLER_13_119
*1253 FILLER_13_126
*1254 FILLER_13_133
*1255 FILLER_13_14
*1256 FILLER_13_140
*1257 FILLER_13_147
*1258 FILLER_13_154
*1259 FILLER_13_161
*1260 FILLER_13_168
*1261 FILLER_13_175
*1262 FILLER_13_182
*1263 FILLER_13_189
*1264 FILLER_13_196
*1265 FILLER_13_203
*1266 FILLER_13_21
*1267 FILLER_13_210
*1268 FILLER_13_217
*1269 FILLER_13_224
*1270 FILLER_13_231
*1271 FILLER_13_238
*1272 FILLER_13_245
*1273 FILLER_13_252
*1274 FILLER_13_259
*1275 FILLER_13_266
*1276 FILLER_13_273
*1277 FILLER_13_28
*1278 FILLER_13_280
*1279 FILLER_13_287
*1280 FILLER_13_294
*1281 FILLER_13_301
*1282 FILLER_13_308
*1283 FILLER_13_315
*1284 FILLER_13_322
*1285 FILLER_13_329
*1286 FILLER_13_336
*1287 FILLER_13_343
*1288 FILLER_13_35
*1289 FILLER_13_350
*1290 FILLER_13_357
*1291 FILLER_13_364
*1292 FILLER_13_371
*1293 FILLER_13_378
*1294 FILLER_13_385
*1295 FILLER_13_392
*1296 FILLER_13_399
*1297 FILLER_13_406
*1298 FILLER_13_413
*1299 FILLER_13_42
*1300 FILLER_13_420
*1301 FILLER_13_427
*1302 FILLER_13_434
*1303 FILLER_13_441
*1304 FILLER_13_448
*1305 FILLER_13_455
*1306 FILLER_13_462
*1307 FILLER_13_469
*1308 FILLER_13_476
*1309 FILLER_13_483
*1310 FILLER_13_49
*1311 FILLER_13_490
*1312 FILLER_13_497
*1313 FILLER_13_504
*1314 FILLER_13_511
*1315 FILLER_13_518
*1316 FILLER_13_525
*1317 FILLER_13_532
*1318 FILLER_13_539
*1319 FILLER_13_546
*1320 FILLER_13_553
*1321 FILLER_13_56
*1322 FILLER_13_560
*1323 FILLER_13_567
*1324 FILLER_13_574
*1325 FILLER_13_581
*1326 FILLER_13_588
*1327 FILLER_13_595
*1328 FILLER_13_602
*1329 FILLER_13_609
*1330 FILLER_13_616
*1331 FILLER_13_623
*1332 FILLER_13_63
*1333 FILLER_13_630
*1334 FILLER_13_637
*1335 FILLER_13_644
*1336 FILLER_13_651
*1337 FILLER_13_658
*1338 FILLER_13_665
*1339 FILLER_13_672
*1340 FILLER_13_679
*1341 FILLER_13_686
*1342 FILLER_13_693
*1343 FILLER_13_7
*1344 FILLER_13_70
*1345 FILLER_13_700
*1346 FILLER_13_707
*1347 FILLER_13_714
*1348 FILLER_13_721
*1349 FILLER_13_728
*1350 FILLER_13_735
*1351 FILLER_13_742
*1352 FILLER_13_749
*1353 FILLER_13_756
*1354 FILLER_13_763
*1355 FILLER_13_77
*1356 FILLER_13_770
*1357 FILLER_13_777
*1358 FILLER_13_784
*1359 FILLER_13_791
*1360 FILLER_13_798
*1361 FILLER_13_805
*1362 FILLER_13_812
*1363 FILLER_13_819
*1364 FILLER_13_826
*1365 FILLER_13_833
*1366 FILLER_13_84
*1367 FILLER_13_840
*1368 FILLER_13_91
*1369 FILLER_13_98
*1370 FILLER_14_0
*1371 FILLER_14_105
*1372 FILLER_14_112
*1373 FILLER_14_119
*1374 FILLER_14_126
*1375 FILLER_14_133
*1376 FILLER_14_14
*1377 FILLER_14_140
*1378 FILLER_14_147
*1379 FILLER_14_154
*1380 FILLER_14_161
*1381 FILLER_14_168
*1382 FILLER_14_175
*1383 FILLER_14_182
*1384 FILLER_14_189
*1385 FILLER_14_196
*1386 FILLER_14_203
*1387 FILLER_14_21
*1388 FILLER_14_210
*1389 FILLER_14_217
*1390 FILLER_14_224
*1391 FILLER_14_231
*1392 FILLER_14_238
*1393 FILLER_14_245
*1394 FILLER_14_252
*1395 FILLER_14_259
*1396 FILLER_14_266
*1397 FILLER_14_273
*1398 FILLER_14_28
*1399 FILLER_14_280
*1400 FILLER_14_287
*1401 FILLER_14_294
*1402 FILLER_14_301
*1403 FILLER_14_308
*1404 FILLER_14_315
*1405 FILLER_14_322
*1406 FILLER_14_329
*1407 FILLER_14_336
*1408 FILLER_14_343
*1409 FILLER_14_35
*1410 FILLER_14_350
*1411 FILLER_14_357
*1412 FILLER_14_364
*1413 FILLER_14_371
*1414 FILLER_14_378
*1415 FILLER_14_385
*1416 FILLER_14_392
*1417 FILLER_14_399
*1418 FILLER_14_406
*1419 FILLER_14_413
*1420 FILLER_14_42
*1421 FILLER_14_420
*1422 FILLER_14_427
*1423 FILLER_14_434
*1424 FILLER_14_441
*1425 FILLER_14_448
*1426 FILLER_14_455
*1427 FILLER_14_462
*1428 FILLER_14_469
*1429 FILLER_14_476
*1430 FILLER_14_483
*1431 FILLER_14_49
*1432 FILLER_14_490
*1433 FILLER_14_497
*1434 FILLER_14_504
*1435 FILLER_14_511
*1436 FILLER_14_518
*1437 FILLER_14_525
*1438 FILLER_14_532
*1439 FILLER_14_539
*1440 FILLER_14_546
*1441 FILLER_14_553
*1442 FILLER_14_56
*1443 FILLER_14_560
*1444 FILLER_14_567
*1445 FILLER_14_574
*1446 FILLER_14_581
*1447 FILLER_14_588
*1448 FILLER_14_595
*1449 FILLER_14_602
*1450 FILLER_14_609
*1451 FILLER_14_616
*1452 FILLER_14_623
*1453 FILLER_14_63
*1454 FILLER_14_630
*1455 FILLER_14_637
*1456 FILLER_14_644
*1457 FILLER_14_651
*1458 FILLER_14_658
*1459 FILLER_14_665
*1460 FILLER_14_672
*1461 FILLER_14_679
*1462 FILLER_14_686
*1463 FILLER_14_693
*1464 FILLER_14_7
*1465 FILLER_14_70
*1466 FILLER_14_700
*1467 FILLER_14_707
*1468 FILLER_14_714
*1469 FILLER_14_721
*1470 FILLER_14_728
*1471 FILLER_14_735
*1472 FILLER_14_742
*1473 FILLER_14_749
*1474 FILLER_14_756
*1475 FILLER_14_763
*1476 FILLER_14_77
*1477 FILLER_14_770
*1478 FILLER_14_777
*1479 FILLER_14_784
*1480 FILLER_14_791
*1481 FILLER_14_798
*1482 FILLER_14_805
*1483 FILLER_14_812
*1484 FILLER_14_819
*1485 FILLER_14_826
*1486 FILLER_14_833
*1487 FILLER_14_84
*1488 FILLER_14_840
*1489 FILLER_14_91
*1490 FILLER_14_98
*1491 FILLER_15_0
*1492 FILLER_15_105
*1493 FILLER_15_112
*1494 FILLER_15_119
*1495 FILLER_15_126
*1496 FILLER_15_133
*1497 FILLER_15_14
*1498 FILLER_15_140
*1499 FILLER_15_147
*1500 FILLER_15_154
*1501 FILLER_15_161
*1502 FILLER_15_168
*1503 FILLER_15_175
*1504 FILLER_15_182
*1505 FILLER_15_189
*1506 FILLER_15_196
*1507 FILLER_15_203
*1508 FILLER_15_21
*1509 FILLER_15_210
*1510 FILLER_15_217
*1511 FILLER_15_224
*1512 FILLER_15_231
*1513 FILLER_15_238
*1514 FILLER_15_245
*1515 FILLER_15_252
*1516 FILLER_15_259
*1517 FILLER_15_266
*1518 FILLER_15_273
*1519 FILLER_15_28
*1520 FILLER_15_280
*1521 FILLER_15_287
*1522 FILLER_15_294
*1523 FILLER_15_301
*1524 FILLER_15_308
*1525 FILLER_15_315
*1526 FILLER_15_322
*1527 FILLER_15_329